<?xml version="1.0" encoding="UTF-8"?>

<!-- generated on Wed Nov 18 08:44:27 2020 by Eclipse SUMO duarouter Version v1_7_0+0686-1a9aa4abeb
<configuration xmlns:xsi="http://www.w3.org/2001/XMLSchema-instance" xsi:noNamespaceSchemaLocation="http://sumo.dlr.de/xsd/duarouterConfiguration.xsd">

    <input>
        <net-file value="sumo_nets/30/myNet.net.xml"/>
        <route-files value="sumo_nets/30/trips.rou.xml"/>
    </input>

    <output>
        <output-file value="sumo_nets/30/trips.rou.xml.tmp"/>
        <write-trips value="true"/>
    </output>

    <time>
        <begin value="0.0"/>
        <end value="500.0"/>
    </time>

    <report>
        <no-warnings value="true"/>
        <ignore-errors value="true"/>
        <no-step-log value="true"/>
    </report>

</configuration>
-->

<routes xmlns:xsi="http://www.w3.org/2001/XMLSchema-instance" xsi:noNamespaceSchemaLocation="http://sumo.dlr.de/xsd/routes_file.xsd">
    <trip id="0" depart="6.00" from="-5" to="37"/>
    <trip id="1" depart="9.00" from="-39" to="37"/>
    <trip id="2" depart="16.00" from="-37" to="49"/>
    <trip id="3" depart="16.00" from="9" to="47"/>
    <trip id="4" depart="21.00" from="-39" to="47"/>
    <trip id="5" depart="24.00" from="-49" to="5"/>
    <trip id="6" depart="24.00" from="-47" to="5"/>
    <trip id="7" depart="26.00" from="-49" to="37"/>
    <trip id="8" depart="27.00" from="-39" to="37"/>
    <trip id="9" depart="27.00" from="-41" to="49"/>
    <trip id="10" depart="27.00" from="-47" to="5"/>
    <trip id="11" depart="32.00" from="-37" to="47"/>
    <trip id="12" depart="36.00" from="-37" to="5"/>
    <trip id="13" depart="36.00" from="-37" to="49"/>
    <trip id="14" depart="40.00" from="-5" to="37"/>
    <trip id="15" depart="40.00" from="-49" to="39"/>
    <trip id="16" depart="52.00" from="-9" to="3"/>
    <trip id="17" depart="58.00" from="-39" to="47"/>
    <trip id="18" depart="70.00" from="-41" to="5"/>
    <trip id="19" depart="73.00" from="-37" to="49"/>
    <trip id="20" depart="73.00" from="-41" to="49"/>
    <trip id="21" depart="80.00" from="-3" to="47"/>
    <trip id="22" depart="81.00" from="-37" to="49"/>
    <trip id="23" depart="91.00" from="-47" to="37"/>
    <trip id="24" depart="96.00" from="-37" to="47"/>
    <trip id="25" depart="97.00" from="-5" to="39"/>
    <trip id="26" depart="100.00" from="-47" to="5"/>
    <trip id="27" depart="101.00" from="-5" to="49"/>
    <trip id="28" depart="102.00" from="-39" to="37"/>
    <trip id="29" depart="108.00" from="-49" to="47"/>
    <trip id="30" depart="112.00" from="-47" to="-35"/>
    <trip id="31" depart="113.00" from="-39" to="37"/>
    <trip id="32" depart="120.00" from="-39" to="-3"/>
    <trip id="33" depart="120.00" from="-37" to="47"/>
    <trip id="34" depart="121.00" from="-49" to="5"/>
    <trip id="35" depart="123.00" from="-5" to="35"/>
    <trip id="36" depart="130.00" from="-47" to="49"/>
    <trip id="37" depart="134.00" from="-3" to="47"/>
    <trip id="38" depart="135.00" from="-37" to="39"/>
    <trip id="39" depart="138.00" from="-49" to="39"/>
    <trip id="40" depart="140.00" from="-39" to="5"/>
    <trip id="41" depart="143.00" from="-47" to="37"/>
    <trip id="42" depart="143.00" from="-49" to="39"/>
    <trip id="43" depart="145.00" from="35" to="47"/>
    <trip id="44" depart="152.00" from="-37" to="49"/>
    <trip id="45" depart="161.00" from="-9" to="37"/>
    <trip id="46" depart="162.00" from="-37" to="3"/>
    <trip id="47" depart="168.00" from="-5" to="37"/>
    <trip id="48" depart="169.00" from="-5" to="39"/>
    <trip id="49" depart="175.00" from="-37" to="49"/>
    <trip id="50" depart="177.00" from="-39" to="-3"/>
    <trip id="51" depart="177.00" from="-47" to="39"/>
    <trip id="52" depart="179.00" from="-49" to="39"/>
    <trip id="53" depart="182.00" from="-39" to="5"/>
    <trip id="54" depart="185.00" from="-5" to="49"/>
    <trip id="55" depart="186.00" from="-9" to="37"/>
    <trip id="56" depart="188.00" from="-47" to="37"/>
    <trip id="57" depart="189.00" from="35" to="37"/>
    <trip id="58" depart="192.00" from="-39" to="-41"/>
    <trip id="59" depart="192.00" from="-9" to="35"/>
    <trip id="60" depart="194.00" from="-47" to="5"/>
    <trip id="61" depart="196.00" from="-39" to="47"/>
    <trip id="62" depart="198.00" from="-5" to="37"/>
    <trip id="64" depart="207.00" from="-49" to="39"/>
    <trip id="65" depart="213.00" from="-5" to="47"/>
    <trip id="66" depart="216.00" from="-49" to="37"/>
    <trip id="67" depart="223.00" from="-49" to="5"/>
    <trip id="68" depart="225.00" from="-37" to="5"/>
    <trip id="69" depart="233.00" from="-49" to="-9"/>
    <trip id="70" depart="235.00" from="-39" to="37"/>
    <trip id="71" depart="236.00" from="-49" to="5"/>
    <trip id="72" depart="240.00" from="-49" to="37"/>
    <trip id="73" depart="240.00" from="-39" to="5"/>
    <trip id="74" depart="241.00" from="-9" to="3"/>
    <trip id="75" depart="247.00" from="-49" to="47"/>
    <trip id="76" depart="250.00" from="41" to="37"/>
    <trip id="77" depart="254.00" from="-39" to="47"/>
    <trip id="79" depart="267.00" from="-49" to="5"/>
    <trip id="80" depart="269.00" from="-9" to="49"/>
    <trip id="81" depart="270.00" from="-47" to="37"/>
    <trip id="82" depart="282.00" from="-37" to="3"/>
    <trip id="83" depart="283.00" from="-49" to="-41"/>
    <trip id="85" depart="308.00" from="-39" to="49"/>
    <trip id="86" depart="310.00" from="-5" to="37"/>
    <trip id="87" depart="311.00" from="9" to="49"/>
    <trip id="88" depart="312.00" from="-9" to="39"/>
    <trip id="89" depart="317.00" from="-39" to="3"/>
    <trip id="90" depart="324.00" from="-39" to="37"/>
    <trip id="91" depart="340.00" from="-49" to="5"/>
    <trip id="92" depart="343.00" from="-39" to="5"/>
    <trip id="93" depart="343.00" from="-5" to="9"/>
    <trip id="94" depart="346.00" from="-39" to="47"/>
    <trip id="95" depart="349.00" from="-39" to="37"/>
    <trip id="96" depart="353.00" from="-49" to="5"/>
    <trip id="97" depart="354.00" from="-47" to="5"/>
    <trip id="98" depart="363.00" from="-39" to="5"/>
    <trip id="99" depart="366.00" from="-39" to="49"/>
    <trip id="100" depart="367.00" from="-5" to="47"/>
    <trip id="101" depart="367.00" from="-39" to="37"/>
    <trip id="102" depart="371.00" from="-49" to="39"/>
    <trip id="103" depart="373.00" from="-5" to="49"/>
    <trip id="104" depart="374.00" from="-5" to="39"/>
    <trip id="105" depart="381.00" from="-35" to="5"/>
    <trip id="106" depart="381.00" from="-49" to="37"/>
    <trip id="107" depart="386.00" from="-5" to="39"/>
    <trip id="108" depart="388.00" from="-49" to="37"/>
    <trip id="109" depart="389.00" from="-9" to="37"/>
    <trip id="110" depart="391.00" from="-47" to="49"/>
    <trip id="111" depart="394.00" from="-49" to="37"/>
    <trip id="112" depart="396.00" from="-35" to="5"/>
    <trip id="113" depart="399.00" from="-47" to="49"/>
    <trip id="115" depart="417.00" from="-37" to="49"/>
    <trip id="116" depart="421.00" from="-47" to="49"/>
    <trip id="117" depart="421.00" from="9" to="49"/>
    <trip id="118" depart="421.00" from="-37" to="39"/>
    <trip id="119" depart="428.00" from="-47" to="5"/>
    <trip id="120" depart="430.00" from="-47" to="-9"/>
    <trip id="121" depart="430.00" from="-47" to="35"/>
    <trip id="122" depart="432.00" from="-49" to="37"/>
    <trip id="123" depart="441.00" from="-39" to="49"/>
    <trip id="124" depart="450.00" from="-47" to="9"/>
    <trip id="125" depart="456.00" from="3" to="37"/>
    <trip id="126" depart="465.00" from="-49" to="47"/>
    <trip id="127" depart="466.00" from="-47" to="-9"/>
    <trip id="128" depart="471.00" from="-49" to="47"/>
    <trip id="130" depart="487.00" from="-37" to="-3"/>
    <trip id="131" depart="493.00" from="-39" to="5"/>
    <trip id="132" depart="495.00" from="-49" to="37"/>
</routes>
