<?xml version="1.0" encoding="UTF-8"?>

<!-- generated on Wed Nov 18 08:44:27 2020 by Eclipse SUMO duarouter Version v1_7_0+0686-1a9aa4abeb
<configuration xmlns:xsi="http://www.w3.org/2001/XMLSchema-instance" xsi:noNamespaceSchemaLocation="http://sumo.dlr.de/xsd/duarouterConfiguration.xsd">

    <input>
        <net-file value="sumo_nets/30/myNet.net.xml"/>
        <route-files value="sumo_nets/30/trips.rou.xml"/>
    </input>

    <output>
        <output-file value="sumo_nets/30/trips.trips.xml"/>
        <alternatives-output value="sumo_nets/30/trips.trips.alt.xml"/>
    </output>

    <time>
        <begin value="0.0"/>
        <end value="500.0"/>
    </time>

    <report>
        <no-warnings value="true"/>
        <ignore-errors value="true"/>
        <no-step-log value="true"/>
    </report>

</configuration>
-->

<routes xmlns:xsi="http://www.w3.org/2001/XMLSchema-instance" xsi:noNamespaceSchemaLocation="http://sumo.dlr.de/xsd/routes_file.xsd">
    <vehicle id="0" depart="6.00">
        <route edges="-5 3 37"/>
    </vehicle>
    <vehicle id="1" depart="9.00">
        <route edges="-39 37"/>
    </vehicle>
    <vehicle id="2" depart="16.00">
        <route edges="-37 -3 9 49"/>
    </vehicle>
    <vehicle id="3" depart="16.00">
        <route edges="9 47"/>
    </vehicle>
    <vehicle id="4" depart="21.00">
        <route edges="-39 -3 9 47"/>
    </vehicle>
    <vehicle id="5" depart="24.00">
        <route edges="-49 -9 5"/>
    </vehicle>
    <vehicle id="6" depart="24.00">
        <route edges="-47 -9 5"/>
    </vehicle>
    <vehicle id="7" depart="26.00">
        <route edges="-49 -9 3 37"/>
    </vehicle>
    <vehicle id="8" depart="27.00">
        <route edges="-39 37"/>
    </vehicle>
    <vehicle id="9" depart="27.00">
        <route edges="-41 49"/>
    </vehicle>
    <vehicle id="10" depart="27.00">
        <route edges="-47 -9 5"/>
    </vehicle>
    <vehicle id="11" depart="32.00">
        <route edges="-37 -3 9 47"/>
    </vehicle>
    <vehicle id="12" depart="36.00">
        <route edges="-37 -3 5"/>
    </vehicle>
    <vehicle id="13" depart="36.00">
        <route edges="-37 -3 9 49"/>
    </vehicle>
    <vehicle id="14" depart="40.00">
        <route edges="-5 3 37"/>
    </vehicle>
    <vehicle id="15" depart="40.00">
        <route edges="-49 -9 3 39"/>
    </vehicle>
    <vehicle id="16" depart="52.00">
        <route edges="-9 3"/>
    </vehicle>
    <vehicle id="17" depart="58.00">
        <route edges="-39 -3 9 47"/>
    </vehicle>
    <vehicle id="18" depart="70.00">
        <route edges="-41 -9 5"/>
    </vehicle>
    <vehicle id="19" depart="73.00">
        <route edges="-37 -3 9 49"/>
    </vehicle>
    <vehicle id="20" depart="73.00">
        <route edges="-41 49"/>
    </vehicle>
    <vehicle id="21" depart="80.00">
        <route edges="-3 9 47"/>
    </vehicle>
    <vehicle id="22" depart="81.00">
        <route edges="-37 -3 9 49"/>
    </vehicle>
    <vehicle id="23" depart="91.00">
        <route edges="-47 -9 3 37"/>
    </vehicle>
    <vehicle id="24" depart="96.00">
        <route edges="-37 -3 9 47"/>
    </vehicle>
    <vehicle id="25" depart="97.00">
        <route edges="-5 3 39"/>
    </vehicle>
    <vehicle id="26" depart="100.00">
        <route edges="-47 -9 5"/>
    </vehicle>
    <vehicle id="27" depart="101.00">
        <route edges="-5 9 49"/>
    </vehicle>
    <vehicle id="28" depart="102.00">
        <route edges="-39 37"/>
    </vehicle>
    <vehicle id="29" depart="108.00">
        <route edges="-49 47"/>
    </vehicle>
    <vehicle id="30" depart="112.00">
        <route edges="-47 41 -35"/>
    </vehicle>
    <vehicle id="31" depart="113.00">
        <route edges="-39 37"/>
    </vehicle>
    <vehicle id="32" depart="120.00">
        <route edges="-39 -3"/>
    </vehicle>
    <vehicle id="33" depart="120.00">
        <route edges="-37 -3 9 47"/>
    </vehicle>
    <vehicle id="34" depart="121.00">
        <route edges="-49 -9 5"/>
    </vehicle>
    <vehicle id="35" depart="123.00">
        <route edges="-5 35"/>
    </vehicle>
    <vehicle id="36" depart="130.00">
        <route edges="-47 49"/>
    </vehicle>
    <vehicle id="37" depart="134.00">
        <route edges="-3 9 47"/>
    </vehicle>
    <vehicle id="38" depart="135.00">
        <route edges="-37 39"/>
    </vehicle>
    <vehicle id="39" depart="138.00">
        <route edges="-49 -9 3 39"/>
    </vehicle>
    <vehicle id="40" depart="140.00">
        <route edges="-39 -3 5"/>
    </vehicle>
    <vehicle id="41" depart="143.00">
        <route edges="-47 -9 3 37"/>
    </vehicle>
    <vehicle id="42" depart="143.00">
        <route edges="-49 -9 3 39"/>
    </vehicle>
    <vehicle id="43" depart="145.00">
        <route edges="35 -41 47"/>
    </vehicle>
    <vehicle id="44" depart="152.00">
        <route edges="-37 -3 9 49"/>
    </vehicle>
    <vehicle id="45" depart="161.00">
        <route edges="-9 3 37"/>
    </vehicle>
    <vehicle id="46" depart="162.00">
        <route edges="-37 -3 35 -41 -9 3"/>
    </vehicle>
    <vehicle id="47" depart="168.00">
        <route edges="-5 3 37"/>
    </vehicle>
    <vehicle id="48" depart="169.00">
        <route edges="-5 3 39"/>
    </vehicle>
    <vehicle id="49" depart="175.00">
        <route edges="-37 -3 9 49"/>
    </vehicle>
    <vehicle id="50" depart="177.00">
        <route edges="-39 -3"/>
    </vehicle>
    <vehicle id="51" depart="177.00">
        <route edges="-47 -9 3 39"/>
    </vehicle>
    <vehicle id="52" depart="179.00">
        <route edges="-49 -9 3 39"/>
    </vehicle>
    <vehicle id="53" depart="182.00">
        <route edges="-39 -3 5"/>
    </vehicle>
    <vehicle id="54" depart="185.00">
        <route edges="-5 9 49"/>
    </vehicle>
    <vehicle id="55" depart="186.00">
        <route edges="-9 3 37"/>
    </vehicle>
    <vehicle id="56" depart="188.00">
        <route edges="-47 -9 3 37"/>
    </vehicle>
    <vehicle id="57" depart="189.00">
        <route edges="35 -41 -9 3 37"/>
    </vehicle>
    <vehicle id="58" depart="192.00">
        <route edges="-39 -3 35 -41"/>
    </vehicle>
    <vehicle id="59" depart="192.00">
        <route edges="-9 35"/>
    </vehicle>
    <vehicle id="60" depart="194.00">
        <route edges="-47 -9 5"/>
    </vehicle>
    <vehicle id="61" depart="196.00">
        <route edges="-39 -3 9 47"/>
    </vehicle>
    <vehicle id="62" depart="198.00">
        <route edges="-5 3 37"/>
    </vehicle>
    <vehicle id="64" depart="207.00">
        <route edges="-49 -9 3 39"/>
    </vehicle>
    <vehicle id="65" depart="213.00">
        <route edges="-5 9 47"/>
    </vehicle>
    <vehicle id="66" depart="216.00">
        <route edges="-49 -9 3 37"/>
    </vehicle>
    <vehicle id="67" depart="223.00">
        <route edges="-49 -9 5"/>
    </vehicle>
    <vehicle id="68" depart="225.00">
        <route edges="-37 -3 5"/>
    </vehicle>
    <vehicle id="69" depart="233.00">
        <route edges="-49 -9"/>
    </vehicle>
    <vehicle id="70" depart="235.00">
        <route edges="-39 37"/>
    </vehicle>
    <vehicle id="71" depart="236.00">
        <route edges="-49 -9 5"/>
    </vehicle>
    <vehicle id="72" depart="240.00">
        <route edges="-49 -9 3 37"/>
    </vehicle>
    <vehicle id="73" depart="240.00">
        <route edges="-39 -3 5"/>
    </vehicle>
    <vehicle id="74" depart="241.00">
        <route edges="-9 3"/>
    </vehicle>
    <vehicle id="75" depart="247.00">
        <route edges="-49 47"/>
    </vehicle>
    <vehicle id="76" depart="250.00">
        <route edges="41 -35 3 37"/>
    </vehicle>
    <vehicle id="77" depart="254.00">
        <route edges="-39 -3 9 47"/>
    </vehicle>
    <vehicle id="79" depart="267.00">
        <route edges="-49 -9 5"/>
    </vehicle>
    <vehicle id="80" depart="269.00">
        <route edges="-9 35 -41 49"/>
    </vehicle>
    <vehicle id="81" depart="270.00">
        <route edges="-47 -9 3 37"/>
    </vehicle>
    <vehicle id="82" depart="282.00">
        <route edges="-37 -3 35 -41 -9 3"/>
    </vehicle>
    <vehicle id="83" depart="283.00">
        <route edges="-49 -9 35 -41"/>
    </vehicle>
    <vehicle id="85" depart="308.00">
        <route edges="-39 -3 9 49"/>
    </vehicle>
    <vehicle id="86" depart="310.00">
        <route edges="-5 3 37"/>
    </vehicle>
    <vehicle id="87" depart="311.00">
        <route edges="9 49"/>
    </vehicle>
    <vehicle id="88" depart="312.00">
        <route edges="-9 3 39"/>
    </vehicle>
    <vehicle id="89" depart="317.00">
        <route edges="-39 -3 35 -41 -9 3"/>
    </vehicle>
    <vehicle id="90" depart="324.00">
        <route edges="-39 37"/>
    </vehicle>
    <vehicle id="91" depart="340.00">
        <route edges="-49 -9 5"/>
    </vehicle>
    <vehicle id="92" depart="343.00">
        <route edges="-39 -3 5"/>
    </vehicle>
    <vehicle id="93" depart="343.00">
        <route edges="-5 9"/>
    </vehicle>
    <vehicle id="94" depart="346.00">
        <route edges="-39 -3 9 47"/>
    </vehicle>
    <vehicle id="95" depart="349.00">
        <route edges="-39 37"/>
    </vehicle>
    <vehicle id="96" depart="353.00">
        <route edges="-49 -9 5"/>
    </vehicle>
    <vehicle id="97" depart="354.00">
        <route edges="-47 -9 5"/>
    </vehicle>
    <vehicle id="98" depart="363.00">
        <route edges="-39 -3 5"/>
    </vehicle>
    <vehicle id="99" depart="366.00">
        <route edges="-39 -3 9 49"/>
    </vehicle>
    <vehicle id="100" depart="367.00">
        <route edges="-5 9 47"/>
    </vehicle>
    <vehicle id="101" depart="367.00">
        <route edges="-39 37"/>
    </vehicle>
    <vehicle id="102" depart="371.00">
        <route edges="-49 -9 3 39"/>
    </vehicle>
    <vehicle id="103" depart="373.00">
        <route edges="-5 9 49"/>
    </vehicle>
    <vehicle id="104" depart="374.00">
        <route edges="-5 3 39"/>
    </vehicle>
    <vehicle id="105" depart="381.00">
        <route edges="-35 5"/>
    </vehicle>
    <vehicle id="106" depart="381.00">
        <route edges="-49 -9 3 37"/>
    </vehicle>
    <vehicle id="107" depart="386.00">
        <route edges="-5 3 39"/>
    </vehicle>
    <vehicle id="108" depart="388.00">
        <route edges="-49 -9 3 37"/>
    </vehicle>
    <vehicle id="109" depart="389.00">
        <route edges="-9 3 37"/>
    </vehicle>
    <vehicle id="110" depart="391.00">
        <route edges="-47 49"/>
    </vehicle>
    <vehicle id="111" depart="394.00">
        <route edges="-49 -9 3 37"/>
    </vehicle>
    <vehicle id="112" depart="396.00">
        <route edges="-35 5"/>
    </vehicle>
    <vehicle id="113" depart="399.00">
        <route edges="-47 49"/>
    </vehicle>
    <vehicle id="115" depart="417.00">
        <route edges="-37 -3 9 49"/>
    </vehicle>
    <vehicle id="116" depart="421.00">
        <route edges="-47 49"/>
    </vehicle>
    <vehicle id="117" depart="421.00">
        <route edges="9 49"/>
    </vehicle>
    <vehicle id="118" depart="421.00">
        <route edges="-37 39"/>
    </vehicle>
    <vehicle id="119" depart="428.00">
        <route edges="-47 -9 5"/>
    </vehicle>
    <vehicle id="120" depart="430.00">
        <route edges="-47 -9"/>
    </vehicle>
    <vehicle id="121" depart="430.00">
        <route edges="-47 -9 35"/>
    </vehicle>
    <vehicle id="122" depart="432.00">
        <route edges="-49 -9 3 37"/>
    </vehicle>
    <vehicle id="123" depart="441.00">
        <route edges="-39 -3 9 49"/>
    </vehicle>
    <vehicle id="124" depart="450.00">
        <route edges="-47 41 -35 9"/>
    </vehicle>
    <vehicle id="125" depart="456.00">
        <route edges="3 37"/>
    </vehicle>
    <vehicle id="126" depart="465.00">
        <route edges="-49 47"/>
    </vehicle>
    <vehicle id="127" depart="466.00">
        <route edges="-47 -9"/>
    </vehicle>
    <vehicle id="128" depart="471.00">
        <route edges="-49 47"/>
    </vehicle>
    <vehicle id="130" depart="487.00">
        <route edges="-37 -3"/>
    </vehicle>
    <vehicle id="131" depart="493.00">
        <route edges="-39 -3 5"/>
    </vehicle>
    <vehicle id="132" depart="495.00">
        <route edges="-49 -9 3 37"/>
    </vehicle>
</routes>
