<?xml version="1.0" encoding="UTF-8"?>

<!-- generated on Wed Nov 18 08:44:27 2020 by Eclipse SUMO duarouter Version v1_7_0+0686-1a9aa4abeb
<configuration xmlns:xsi="http://www.w3.org/2001/XMLSchema-instance" xsi:noNamespaceSchemaLocation="http://sumo.dlr.de/xsd/duarouterConfiguration.xsd">

    <input>
        <net-file value="sumo_nets/35/myNet.net.xml"/>
        <route-files value="sumo_nets/35/trips.rou.xml"/>
    </input>

    <output>
        <output-file value="sumo_nets/35/trips.trips.xml"/>
        <alternatives-output value="sumo_nets/35/trips.trips.alt.xml"/>
    </output>

    <time>
        <begin value="0.0"/>
        <end value="500.0"/>
    </time>

    <report>
        <no-warnings value="true"/>
        <ignore-errors value="true"/>
        <no-step-log value="true"/>
    </report>

</configuration>
-->

<routes xmlns:xsi="http://www.w3.org/2001/XMLSchema-instance" xsi:noNamespaceSchemaLocation="http://sumo.dlr.de/xsd/routes_file.xsd">
    <vehicle id="0" depart="8.00">
        <route edges="-39 -17 -11 7"/>
    </vehicle>
    <vehicle id="2" depart="13.00">
        <route edges="-21 31"/>
    </vehicle>
    <vehicle id="3" depart="24.00">
        <route edges="-39 21"/>
    </vehicle>
    <vehicle id="4" depart="36.00">
        <route edges="-7 11 17 31"/>
    </vehicle>
    <vehicle id="5" depart="37.00">
        <route edges="-7 11 17 39"/>
    </vehicle>
    <vehicle id="6" depart="38.00">
        <route edges="-12 13 17 39"/>
    </vehicle>
    <vehicle id="7" depart="42.00">
        <route edges="-17 -13 -3 11 17 21"/>
    </vehicle>
    <vehicle id="8" depart="49.00">
        <route edges="17"/>
    </vehicle>
    <vehicle id="9" depart="52.00">
        <route edges="-31 39"/>
    </vehicle>
    <vehicle id="10" depart="52.00">
        <route edges="11 17 21"/>
    </vehicle>
    <vehicle id="11" depart="55.00">
        <route edges="-39 -17 -13 12 -5"/>
    </vehicle>
    <vehicle id="12" depart="63.00">
        <route edges="-39 -17 -11"/>
    </vehicle>
    <vehicle id="13" depart="70.00">
        <route edges="-39 -17 -11 7"/>
    </vehicle>
    <vehicle id="14" depart="76.00">
        <route edges="-11 5 -12"/>
    </vehicle>
    <vehicle id="15" depart="77.00">
        <route edges="-39 -17 -13 -3"/>
    </vehicle>
    <vehicle id="16" depart="77.00">
        <route edges="-39 31"/>
    </vehicle>
    <vehicle id="17" depart="83.00">
        <route edges="-11 5"/>
    </vehicle>
    <vehicle id="19" depart="85.00">
        <route edges="-17 -13 -3 11 17 39"/>
    </vehicle>
    <vehicle id="20" depart="87.00">
        <route edges="-7 11 17 39"/>
    </vehicle>
    <vehicle id="21" depart="88.00">
        <route edges="-7 11 17 31"/>
    </vehicle>
    <vehicle id="22" depart="92.00">
        <route edges="-39 31"/>
    </vehicle>
    <vehicle id="23" depart="92.00">
        <route edges="17 31"/>
    </vehicle>
    <vehicle id="24" depart="100.00">
        <route edges="11 -13 -3 7"/>
    </vehicle>
    <vehicle id="25" depart="101.00">
        <route edges="-21 31"/>
    </vehicle>
    <vehicle id="26" depart="103.00">
        <route edges="-11 3 13 17 21"/>
    </vehicle>
    <vehicle id="27" depart="108.00">
        <route edges="-31 -17 -13"/>
    </vehicle>
    <vehicle id="28" depart="111.00">
        <route edges="-12 -3 11 -13 12 -5"/>
    </vehicle>
    <vehicle id="29" depart="118.00">
        <route edges="-5 11 17 31"/>
    </vehicle>
    <vehicle id="30" depart="119.00">
        <route edges="-7 11 17 21"/>
    </vehicle>
    <vehicle id="31" depart="120.00">
        <route edges="-31 21"/>
    </vehicle>
    <vehicle id="32" depart="123.00">
        <route edges="-7 11 17 21"/>
    </vehicle>
    <vehicle id="33" depart="128.00">
        <route edges="-31 21"/>
    </vehicle>
    <vehicle id="34" depart="129.00">
        <route edges="-7 11 17 21"/>
    </vehicle>
    <vehicle id="35" depart="132.00">
        <route edges="-31 21"/>
    </vehicle>
    <vehicle id="36" depart="134.00">
        <route edges="-39 21"/>
    </vehicle>
    <vehicle id="37" depart="135.00">
        <route edges="-7 11 17 21"/>
    </vehicle>
    <vehicle id="38" depart="146.00">
        <route edges="-39 31"/>
    </vehicle>
    <vehicle id="39" depart="146.00">
        <route edges="-31 21"/>
    </vehicle>
    <vehicle id="40" depart="148.00">
        <route edges="-39 21"/>
    </vehicle>
    <vehicle id="41" depart="151.00">
        <route edges="-31 -17 -11 7"/>
    </vehicle>
    <vehicle id="42" depart="162.00">
        <route edges="-7 11 17 21"/>
    </vehicle>
    <vehicle id="43" depart="167.00">
        <route edges="-39 21"/>
    </vehicle>
    <vehicle id="44" depart="167.00">
        <route edges="-7 11 17 21"/>
    </vehicle>
    <vehicle id="45" depart="175.00">
        <route edges="-39 31"/>
    </vehicle>
    <vehicle id="46" depart="178.00">
        <route edges="-21 -17 -11 7"/>
    </vehicle>
    <vehicle id="47" depart="180.00">
        <route edges="-39 21"/>
    </vehicle>
    <vehicle id="48" depart="187.00">
        <route edges="-7 11 17 21"/>
    </vehicle>
    <vehicle id="49" depart="194.00">
        <route edges="-31 21"/>
    </vehicle>
    <vehicle id="50" depart="195.00">
        <route edges="-7 11 17 21"/>
    </vehicle>
    <vehicle id="51" depart="209.00">
        <route edges="-7 11 17 31"/>
    </vehicle>
    <vehicle id="52" depart="213.00">
        <route edges="-39 21"/>
    </vehicle>
    <vehicle id="53" depart="221.00">
        <route edges="-31 -17 -11 7"/>
    </vehicle>
    <vehicle id="54" depart="225.00">
        <route edges="-7 11 17 21"/>
    </vehicle>
    <vehicle id="55" depart="228.00">
        <route edges="-7 11 17 21"/>
    </vehicle>
    <vehicle id="56" depart="230.00">
        <route edges="-31 -17 -11 7"/>
    </vehicle>
    <vehicle id="57" depart="235.00">
        <route edges="-7 11 17 21"/>
    </vehicle>
    <vehicle id="58" depart="235.00">
        <route edges="-39 -17 -11 7"/>
    </vehicle>
    <vehicle id="59" depart="237.00">
        <route edges="-31 21"/>
    </vehicle>
    <vehicle id="60" depart="239.00">
        <route edges="-31 39"/>
    </vehicle>
    <vehicle id="61" depart="241.00">
        <route edges="-7 11 17 31"/>
    </vehicle>
    <vehicle id="62" depart="247.00">
        <route edges="-31 39"/>
    </vehicle>
    <vehicle id="63" depart="252.00">
        <route edges="-31 39"/>
    </vehicle>
    <vehicle id="64" depart="253.00">
        <route edges="-31 39"/>
    </vehicle>
    <vehicle id="65" depart="257.00">
        <route edges="-7 11 17 39"/>
    </vehicle>
    <vehicle id="66" depart="261.00">
        <route edges="-7 11 17 39"/>
    </vehicle>
    <vehicle id="67" depart="272.00">
        <route edges="-31 39"/>
    </vehicle>
    <vehicle id="68" depart="278.00">
        <route edges="-7 11 17 31"/>
    </vehicle>
    <vehicle id="69" depart="279.00">
        <route edges="-31 39"/>
    </vehicle>
    <vehicle id="70" depart="279.00">
        <route edges="-31 39"/>
    </vehicle>
    <vehicle id="71" depart="281.00">
        <route edges="-31 39"/>
    </vehicle>
    <vehicle id="72" depart="281.00">
        <route edges="-31 39"/>
    </vehicle>
    <vehicle id="73" depart="285.00">
        <route edges="-31 39"/>
    </vehicle>
    <vehicle id="74" depart="295.00">
        <route edges="-31 39"/>
    </vehicle>
    <vehicle id="75" depart="296.00">
        <route edges="-31 39"/>
    </vehicle>
    <vehicle id="76" depart="296.00">
        <route edges="-7 11 17 31"/>
    </vehicle>
    <vehicle id="77" depart="297.00">
        <route edges="-31 39"/>
    </vehicle>
    <vehicle id="78" depart="300.00">
        <route edges="-31 39"/>
    </vehicle>
    <vehicle id="79" depart="313.00">
        <route edges="-31 39"/>
    </vehicle>
    <vehicle id="80" depart="315.00">
        <route edges="-31 39"/>
    </vehicle>
    <vehicle id="81" depart="326.00">
        <route edges="-21 39"/>
    </vehicle>
    <vehicle id="82" depart="331.00">
        <route edges="-31 -17 -11 7"/>
    </vehicle>
    <vehicle id="83" depart="335.00">
        <route edges="-31 39"/>
    </vehicle>
    <vehicle id="84" depart="344.00">
        <route edges="-21 39"/>
    </vehicle>
    <vehicle id="85" depart="344.00">
        <route edges="-31 39"/>
    </vehicle>
    <vehicle id="86" depart="346.00">
        <route edges="-21 39"/>
    </vehicle>
    <vehicle id="87" depart="347.00">
        <route edges="-21 31"/>
    </vehicle>
    <vehicle id="88" depart="348.00">
        <route edges="-31 -17 -11 7"/>
    </vehicle>
    <vehicle id="89" depart="349.00">
        <route edges="-31 39"/>
    </vehicle>
    <vehicle id="90" depart="354.00">
        <route edges="-31 39"/>
    </vehicle>
    <vehicle id="91" depart="357.00">
        <route edges="-31 39"/>
    </vehicle>
    <vehicle id="92" depart="364.00">
        <route edges="-31 39"/>
    </vehicle>
    <vehicle id="93" depart="365.00">
        <route edges="-31 39"/>
    </vehicle>
    <vehicle id="94" depart="367.00">
        <route edges="-31 39"/>
    </vehicle>
    <vehicle id="95" depart="368.00">
        <route edges="-31 39"/>
    </vehicle>
    <vehicle id="96" depart="369.00">
        <route edges="-31 39"/>
    </vehicle>
    <vehicle id="97" depart="371.00">
        <route edges="-31 39"/>
    </vehicle>
    <vehicle id="98" depart="376.00">
        <route edges="-31 39"/>
    </vehicle>
    <vehicle id="99" depart="378.00">
        <route edges="-7 11 17 39"/>
    </vehicle>
    <vehicle id="100" depart="379.00">
        <route edges="-21 39"/>
    </vehicle>
    <vehicle id="101" depart="381.00">
        <route edges="-31 21"/>
    </vehicle>
    <vehicle id="102" depart="383.00">
        <route edges="-21 39"/>
    </vehicle>
    <vehicle id="103" depart="386.00">
        <route edges="-31 39"/>
    </vehicle>
    <vehicle id="104" depart="393.00">
        <route edges="-21 39"/>
    </vehicle>
    <vehicle id="105" depart="396.00">
        <route edges="-31 39"/>
    </vehicle>
    <vehicle id="106" depart="398.00">
        <route edges="-31 39"/>
    </vehicle>
    <vehicle id="107" depart="399.00">
        <route edges="-31 39"/>
    </vehicle>
    <vehicle id="108" depart="404.00">
        <route edges="-31 39"/>
    </vehicle>
    <vehicle id="109" depart="406.00">
        <route edges="-31 39"/>
    </vehicle>
    <vehicle id="110" depart="409.00">
        <route edges="-31 39"/>
    </vehicle>
    <vehicle id="111" depart="411.00">
        <route edges="-31 39"/>
    </vehicle>
    <vehicle id="112" depart="413.00">
        <route edges="-31 39"/>
    </vehicle>
    <vehicle id="113" depart="414.00">
        <route edges="-31 39"/>
    </vehicle>
    <vehicle id="114" depart="416.00">
        <route edges="-31 39"/>
    </vehicle>
    <vehicle id="115" depart="417.00">
        <route edges="-31 39"/>
    </vehicle>
    <vehicle id="116" depart="423.00">
        <route edges="-31 39"/>
    </vehicle>
    <vehicle id="117" depart="423.00">
        <route edges="-31 39"/>
    </vehicle>
    <vehicle id="118" depart="424.00">
        <route edges="-31 -17 -11 7"/>
    </vehicle>
    <vehicle id="119" depart="437.00">
        <route edges="-21 39"/>
    </vehicle>
    <vehicle id="120" depart="438.00">
        <route edges="-31 39"/>
    </vehicle>
    <vehicle id="121" depart="442.00">
        <route edges="-7 11 17 39"/>
    </vehicle>
    <vehicle id="122" depart="443.00">
        <route edges="-31 39"/>
    </vehicle>
    <vehicle id="123" depart="455.00">
        <route edges="-31 39"/>
    </vehicle>
    <vehicle id="124" depart="455.00">
        <route edges="-31 39"/>
    </vehicle>
    <vehicle id="125" depart="472.00">
        <route edges="-31 39"/>
    </vehicle>
    <vehicle id="126" depart="478.00">
        <route edges="-7 11 17 39"/>
    </vehicle>
    <vehicle id="127" depart="478.00">
        <route edges="-31 39"/>
    </vehicle>
    <vehicle id="128" depart="481.00">
        <route edges="-31 39"/>
    </vehicle>
    <vehicle id="129" depart="485.00">
        <route edges="-31 -17 -11 7"/>
    </vehicle>
    <vehicle id="130" depart="493.00">
        <route edges="-7 11 17 39"/>
    </vehicle>
    <vehicle id="131" depart="495.00">
        <route edges="-31 21"/>
    </vehicle>
    <vehicle id="132" depart="497.00">
        <route edges="-31 39"/>
    </vehicle>
</routes>
