<?xml version="1.0" encoding="UTF-8"?>

<!-- generated on Wed Nov 18 08:44:25 2020 by Eclipse SUMO netgenerate Version v1_7_0+0686-1a9aa4abeb
<configuration xmlns:xsi="http://www.w3.org/2001/XMLSchema-instance" xsi:noNamespaceSchemaLocation="http://sumo.dlr.de/xsd/netgenerateConfiguration.xsd">

    <random_network>
        <rand value="true"/>
        <rand.iterations value="9"/>
        <rand.max-distance value="200"/>
        <rand.min-distance value="100"/>
        <rand.random-lanenumber value="true"/>
    </random_network>

    <output>
        <output-file value="sumo_nets/36/myNet.net.xml"/>
    </output>

    <building_defaults>
        <default.lanenumber value="2"/>
        <default-junction-type value="traffic_light"/>
    </building_defaults>

    <junctions>
        <no-turnarounds value="true"/>
    </junctions>

    <random_number>
        <seed value="36"/>
    </random_number>

</configuration>
-->

<net version="1.6" junctionCornerDetail="5" limitTurnSpeed="5.50" xmlns:xsi="http://www.w3.org/2001/XMLSchema-instance" xsi:noNamespaceSchemaLocation="http://sumo.dlr.de/xsd/net_file.xsd">

    <location netOffset="96.77,102.74" convBoundary="0.00,0.00,424.72,451.61" origBoundary="-96.77,-102.74,327.95,348.87" projParameter="!"/>

    <edge id=":1_0" function="internal">
        <lane id=":1_0_0" index="0" speed="9.22" length="16.83" shape="109.70,116.31 104.25,113.35 99.85,111.82 96.52,111.71 94.24,113.03"/>
    </edge>
    <edge id=":1_1" function="internal">
        <lane id=":1_1_0" index="0" speed="13.89" length="28.98" shape="109.70,116.31 103.30,111.52 97.28,105.80 92.21,100.38 88.68,96.49"/>
    </edge>
    <edge id=":1_2" function="internal">
        <lane id=":1_2_0" index="0" speed="8.24" length="6.84" shape="111.37,113.59 106.82,109.04 106.74,108.65"/>
    </edge>
    <edge id=":1_14" function="internal">
        <lane id=":1_14_0" index="0" speed="8.24" length="16.59" shape="106.74,108.65 105.76,103.87 108.06,99.13 113.61,95.85"/>
    </edge>
    <edge id=":1_3" function="internal">
        <lane id=":1_3_0" index="0" speed="5.51" length="9.56" shape="115.50,101.96 112.75,103.19 111.71,104.62 112.37,106.27 114.72,108.13"/>
    </edge>
    <edge id=":1_4" function="internal">
        <lane id=":1_4_0" index="0" speed="13.89" length="25.27" shape="115.50,101.96 109.07,103.88 103.74,105.77 98.97,108.52 94.24,113.03"/>
        <lane id=":1_4_1" index="1" speed="13.89" length="25.27" shape="114.55,98.91 107.89,100.97 102.05,103.19 96.78,106.28 91.82,110.94"/>
    </edge>
    <edge id=":1_6" function="internal">
        <lane id=":1_6_0" index="0" speed="13.43" length="10.97" shape="114.55,98.91 106.09,100.88 103.81,100.96"/>
    </edge>
    <edge id=":1_15" function="internal">
        <lane id=":1_15_0" index="0" speed="13.43" length="16.33" shape="103.81,100.96 98.95,101.13 93.15,99.67 88.68,96.49"/>
    </edge>
    <edge id=":1_7" function="internal">
        <lane id=":1_7_0" index="0" speed="12.18" length="22.36" shape="91.01,94.29 93.79,95.71 98.32,95.93 104.61,94.96 112.66,92.79"/>
    </edge>
    <edge id=":1_8" function="internal">
        <lane id=":1_8_0" index="0" speed="13.89" length="27.62" shape="91.01,94.29 94.70,97.68 100.12,101.98 106.49,106.58 113.05,110.86"/>
    </edge>
    <edge id=":1_9" function="internal">
        <lane id=":1_9_0" index="0" speed="9.45" length="7.36" shape="91.01,94.29 94.03,98.48 94.61,100.60"/>
    </edge>
    <edge id=":1_16" function="internal">
        <lane id=":1_16_0" index="0" speed="9.45" length="11.24" shape="94.61,100.60 95.17,102.66 94.43,106.81 91.82,110.94"/>
    </edge>
    <edge id=":1_10" function="internal">
        <lane id=":1_10_0" index="0" speed="7.55" length="11.51" shape="86.97,106.76 89.12,103.75 90.12,101.04 89.97,98.61 88.68,96.49"/>
    </edge>
    <edge id=":1_11" function="internal">
        <lane id=":1_11_0" index="0" speed="13.89" length="28.75" shape="86.97,106.76 92.39,101.80 98.68,98.05 105.53,95.16 112.66,92.79"/>
        <lane id=":1_11_1" index="1" speed="13.89" length="28.75" shape="89.39,108.85 94.59,104.04 100.36,100.62 106.71,98.07 113.61,95.85"/>
    </edge>
    <edge id=":1_13" function="internal">
        <lane id=":1_13_0" index="0" speed="11.31" length="6.60" shape="89.39,108.85 93.52,105.91 95.04,105.72"/>
    </edge>
    <edge id=":1_17" function="internal">
        <lane id=":1_17_0" index="0" speed="11.31" length="19.20" shape="95.04,105.72 98.83,105.26 105.34,106.91 113.05,110.86"/>
    </edge>
    <edge id=":19_0" function="internal">
        <lane id=":19_0_0" index="0" speed="6.40" length="9.04" shape="294.08,355.20 293.13,352.89 291.68,351.48 289.72,350.97 287.26,351.35"/>
    </edge>
    <edge id=":19_1" function="internal">
        <lane id=":19_1_0" index="0" speed="13.89" length="21.06" shape="294.08,355.20 288.09,335.15"/>
        <lane id=":19_1_1" index="1" speed="13.89" length="21.06" shape="297.19,354.41 291.11,334.10"/>
    </edge>
    <edge id=":19_3" function="internal">
        <lane id=":19_3_0" index="0" speed="13.89" length="21.60" shape="297.16,332.01 303.39,352.83"/>
        <lane id=":19_3_1" index="1" speed="13.89" length="21.60" shape="294.13,333.05 300.29,353.62"/>
    </edge>
    <edge id=":19_5" function="internal">
        <lane id=":19_5_0" index="0" speed="9.22" length="7.56" shape="294.13,333.05 295.15,338.36 294.68,340.46"/>
    </edge>
    <edge id=":19_9" function="internal">
        <lane id=":19_9_0" index="0" speed="9.22" length="12.14" shape="294.68,340.46 294.19,342.67 291.25,345.98 286.32,348.29"/>
    </edge>
    <edge id=":19_6" function="internal">
        <lane id=":19_6_0" index="0" speed="6.45" length="9.10" shape="284.45,342.17 286.73,341.10 288.10,339.58 288.55,337.59 288.09,335.15"/>
    </edge>
    <edge id=":19_7" function="internal">
        <lane id=":19_7_0" index="0" speed="7.95" length="14.40" shape="285.38,345.23 288.99,343.54 291.15,341.12 291.85,337.98 291.11,334.10"/>
    </edge>
    <edge id=":19_8" function="internal">
        <lane id=":19_8_0" index="0" speed="9.18" length="19.72" shape="285.38,345.23 290.76,344.40 295.04,345.52 298.21,348.59 300.29,353.62"/>
    </edge>
    <edge id=":2_0" function="internal">
        <lane id=":2_0_0" index="0" speed="13.59" length="13.95" shape="241.89,201.57 240.32,197.85 238.58,195.61 236.18,193.91 232.62,191.79"/>
    </edge>
    <edge id=":2_1" function="internal">
        <lane id=":2_1_0" index="0" speed="13.89" length="21.50" shape="241.89,201.57 240.75,194.99 241.48,189.38 242.92,184.60 243.95,180.55"/>
    </edge>
    <edge id=":2_2" function="internal">
        <lane id=":2_2_0" index="0" speed="8.67" length="16.86" shape="244.91,200.52 244.36,196.63 245.59,193.30 248.60,190.52 253.39,188.29"/>
    </edge>
    <edge id=":2_3" function="internal">
        <lane id=":2_3_0" index="0" speed="6.50" length="9.03" shape="254.43,191.31 252.23,192.44 250.91,194.00 250.49,196.00 250.96,198.43"/>
    </edge>
    <edge id=":2_4" function="internal">
        <lane id=":2_4_0" index="0" speed="13.79" length="20.94" shape="254.43,191.31 249.21,192.53 244.12,192.57 239.15,191.41 234.30,189.06"/>
    </edge>
    <edge id=":2_5" function="internal">
        <lane id=":2_5_0" index="0" speed="8.12" length="19.67" shape="254.43,191.31 249.18,192.22 245.69,190.73 243.94,186.84 243.95,180.55"/>
    </edge>
    <edge id=":2_6" function="internal">
        <lane id=":2_6_0" index="0" speed="6.61" length="12.56" shape="247.13,180.93 247.08,185.11 248.11,187.72 250.21,188.78 253.39,188.29"/>
    </edge>
    <edge id=":2_7" function="internal">
        <lane id=":2_7_0" index="0" speed="13.89" length="18.80" shape="247.13,180.93 246.58,184.69 246.18,188.77 246.45,193.57 247.94,199.47"/>
    </edge>
    <edge id=":2_8" function="internal">
        <lane id=":2_8_0" index="0" speed="8.17" length="19.77" shape="247.13,180.93 245.67,187.04 243.04,190.43 239.25,191.10 234.30,189.06"/>
    </edge>
    <edge id=":2_9" function="internal">
        <lane id=":2_9_0" index="0" speed="5.77" length="9.16" shape="237.65,183.61 240.12,184.69 241.99,184.55 243.27,183.17 243.95,180.55"/>
    </edge>
    <edge id=":2_10" function="internal">
        <lane id=":2_10_0" index="0" speed="12.40" length="16.84" shape="237.65,183.61 242.58,186.33 246.85,188.01 250.45,188.66 253.39,188.29"/>
    </edge>
    <edge id=":2_11" function="internal">
        <lane id=":2_11_0" index="0" speed="13.89" length="19.51" shape="237.65,183.61 242.85,186.80 246.27,189.44 248.70,192.87 250.96,198.43"/>
        <lane id=":2_11_1" index="1" speed="13.89" length="19.51" shape="235.97,186.34 240.63,189.17 243.71,191.50 245.91,194.53 247.94,199.47"/>
    </edge>
    <edge id=":4_0" function="internal">
        <lane id=":4_0_0" index="0" speed="8.85" length="23.22" shape="249.46,50.41 255.27,49.71 259.11,51.81 260.99,56.73 260.89,64.46"/>
    </edge>
    <edge id=":4_1" function="internal">
        <lane id=":4_1_0" index="0" speed="5.79" length="9.15" shape="257.72,64.08 257.66,61.39 256.74,59.75 254.95,59.14 252.30,59.58"/>
    </edge>
    <edge id=":4_2" function="internal">
        <lane id=":4_2_0" index="0" speed="6.70" length="12.70" shape="257.72,64.08 257.76,59.90 256.71,57.24 254.58,56.12 251.35,56.52"/>
    </edge>

    <edge id="-13" from="12" to="1" priority="-1">
        <lane id="-13_0" index="0" speed="13.89" length="131.04" shape="1.16,-1.10 91.01,94.29"/>
    </edge>
    <edge id="-14" from="4" to="2" priority="-1">
        <lane id="-14_0" index="0" speed="13.89" length="117.28" shape="260.89,64.46 247.13,180.93"/>
    </edge>
    <edge id="-16" from="15" to="2" priority="-1">
        <lane id="-16_0" index="0" speed="13.89" length="180.65" shape="425.24,132.51 254.43,191.31"/>
    </edge>
    <edge id="-20" from="19" to="2" priority="-1">
        <lane id="-20_0" index="0" speed="13.89" length="141.34" shape="288.09,335.15 241.89,201.57"/>
        <lane id="-20_1" index="1" speed="13.89" length="141.34" shape="291.11,334.10 244.91,200.52"/>
    </edge>
    <edge id="-28" from="27" to="19" priority="-1">
        <lane id="-28_0" index="0" speed="13.89" length="145.77" shape="145.06,384.82 284.45,342.17"/>
        <lane id="-28_1" index="1" speed="13.89" length="145.77" shape="146.00,387.88 285.38,345.23"/>
    </edge>
    <edge id="-3" from="2" to="1" priority="-1">
        <lane id="-3_0" index="0" speed="13.89" length="144.25" shape="232.62,191.79 109.70,116.31"/>
        <lane id="-3_1" index="1" speed="13.89" length="144.25" shape="234.30,189.06 111.37,113.59"/>
    </edge>
    <edge id="-32" from="31" to="19" priority="-1">
        <lane id="-32_0" index="0" speed="13.89" length="100.69" shape="318.88,452.79 294.08,355.20"/>
        <lane id="-32_1" index="1" speed="13.89" length="100.69" shape="321.98,452.00 297.19,354.41"/>
    </edge>
    <edge id="-5" from="4" to="1" priority="-1">
        <lane id="-5_0" index="0" speed="13.89" length="143.22" shape="252.30,59.58 115.50,101.96"/>
        <lane id="-5_1" index="1" speed="13.89" length="143.22" shape="251.35,56.52 114.55,98.91"/>
    </edge>
    <edge id="-9" from="8" to="1" priority="-1">
        <lane id="-9_0" index="0" speed="13.89" length="99.68" shape="21.89,182.27 86.97,106.76"/>
        <lane id="-9_1" index="1" speed="13.89" length="99.68" shape="24.32,184.36 89.39,108.85"/>
    </edge>
    <edge id="13" from="1" to="12" priority="-1">
        <lane id="13_0" index="0" speed="13.89" length="131.04" shape="88.68,96.49 -1.16,1.10"/>
    </edge>
    <edge id="14" from="2" to="4" priority="-1">
        <lane id="14_0" index="0" speed="13.89" length="117.28" shape="243.95,180.55 257.72,64.08"/>
    </edge>
    <edge id="16" from="2" to="15" priority="-1">
        <lane id="16_0" index="0" speed="13.89" length="180.65" shape="253.39,188.29 424.20,129.48"/>
    </edge>
    <edge id="20" from="2" to="19" priority="-1">
        <lane id="20_0" index="0" speed="13.89" length="141.34" shape="250.96,198.43 297.16,332.01"/>
        <lane id="20_1" index="1" speed="13.89" length="141.34" shape="247.94,199.47 294.13,333.05"/>
    </edge>
    <edge id="28" from="19" to="27" priority="-1">
        <lane id="28_0" index="0" speed="13.89" length="145.77" shape="287.26,351.35 147.87,394.00"/>
        <lane id="28_1" index="1" speed="13.89" length="145.77" shape="286.32,348.29 146.93,390.94"/>
    </edge>
    <edge id="3" from="1" to="2" priority="-1">
        <lane id="3_0" index="0" speed="13.89" length="144.25" shape="114.72,108.13 237.65,183.61"/>
        <lane id="3_1" index="1" speed="13.89" length="144.25" shape="113.05,110.86 235.97,186.34"/>
    </edge>
    <edge id="32" from="19" to="31" priority="-1">
        <lane id="32_0" index="0" speed="13.89" length="100.69" shape="303.39,352.83 328.18,450.43"/>
        <lane id="32_1" index="1" speed="13.89" length="100.69" shape="300.29,353.62 325.08,451.21"/>
    </edge>
    <edge id="5" from="1" to="4" priority="-1">
        <lane id="5_0" index="0" speed="13.89" length="143.22" shape="112.66,92.79 249.46,50.41"/>
        <lane id="5_1" index="1" speed="13.89" length="143.22" shape="113.61,95.85 250.41,53.46"/>
    </edge>
    <edge id="9" from="1" to="8" priority="-1">
        <lane id="9_0" index="0" speed="13.89" length="99.68" shape="94.24,113.03 29.16,188.53"/>
        <lane id="9_1" index="1" speed="13.89" length="99.68" shape="91.82,110.94 26.74,186.45"/>
    </edge>

    <tlLogic id="1" type="static" programID="0" offset="0">
        <phase duration="38" state="rrrGGGgrrrGGGg"/>
        <phase duration="3"  state="rrryyyyrrryyyy"/>
        <phase duration="37" state="GGgrrrrGGgrrrr"/>
        <phase duration="3"  state="yygrrrryygrrrr"/>
        <phase duration="6"  state="rrGrrrrrrGrrrr"/>
        <phase duration="3"  state="rryrrrrrryrrrr"/>
    </tlLogic>
    <tlLogic id="19" type="static" programID="0" offset="0">
        <phase duration="42" state="GGGGGgrrr"/>
        <phase duration="3"  state="yyyyyyrrr"/>
        <phase duration="42" state="GrrrrrGGG"/>
        <phase duration="3"  state="yrrrrryyy"/>
    </tlLogic>
    <tlLogic id="2" type="static" programID="0" offset="0">
        <phase duration="18" state="GrrrrrrrrGGGG"/>
        <phase duration="3"  state="yrrrrrrrryyyy"/>
        <phase duration="20" state="rrrGGGGrrrrrr"/>
        <phase duration="3"  state="rrryyyyrrrrrr"/>
        <phase duration="20" state="GGGGrrrrrrrrr"/>
        <phase duration="3"  state="yyyyrrrrrrrrr"/>
        <phase duration="20" state="rrrrrrGGGGrrr"/>
        <phase duration="3"  state="rrrrrryyyyrrr"/>
    </tlLogic>
    <tlLogic id="4" type="static" programID="0" offset="0">
        <phase duration="42" state="GGG"/>
        <phase duration="3"  state="yyy"/>
        <phase duration="42" state="GGG"/>
        <phase duration="3"  state="yyy"/>
    </tlLogic>

    <junction id="1" type="traffic_light" x="96.77" y="102.74" incLanes="-3_0 -3_1 -5_0 -5_1 -13_0 -9_0 -9_1" intLanes=":1_0_0 :1_1_0 :1_14_0 :1_3_0 :1_4_0 :1_4_1 :1_15_0 :1_7_0 :1_8_0 :1_16_0 :1_10_0 :1_11_0 :1_11_1 :1_17_0" shape="108.86,117.68 115.56,106.77 114.09,105.47 113.96,104.90 114.23,104.38 114.90,103.91 115.97,103.49 112.18,91.27 106.94,92.77 102.45,93.81 98.73,94.37 95.78,94.45 93.59,94.06 92.17,93.19 87.52,97.58 88.54,99.78 88.45,101.07 87.95,102.49 87.05,104.04 85.76,105.72 95.45,114.08 98.10,113.13 100.11,113.46 102.57,114.33 105.49,115.73">
        <request index="0"  response="00000000110000" foes="00000000110000" cont="0"/>
        <request index="1"  response="11110001110000" foes="11111001110000" cont="0"/>
        <request index="2"  response="11100101110000" foes="11100101110000" cont="1"/>
        <request index="3"  response="00000000000000" foes="00000000000000" cont="0"/>
        <request index="4"  response="00001000000100" foes="10001100000111" cont="0"/>
        <request index="5"  response="00001000000100" foes="10001100000111" cont="0"/>
        <request index="6"  response="01111000000100" foes="01111100000110" cont="1"/>
        <request index="7"  response="01100000000000" foes="01100000000000" cont="0"/>
        <request index="8"  response="11100001110000" foes="11100001110100" cont="0"/>
        <request index="9"  response="11100001110010" foes="11100001110010" cont="1"/>
        <request index="10" response="00000000000000" foes="00000001000010" cont="0"/>
        <request index="11" response="00001000000100" foes="00001111000110" cont="0"/>
        <request index="12" response="00001000000100" foes="00001111000110" cont="0"/>
        <request index="13" response="00001000110100" foes="00001100110110" cont="1"/>
    </junction>
    <junction id="12" type="dead_end" x="0.00" y="0.00" incLanes="13_0" intLanes="" shape="0.00,-0.00 -2.33,2.19 0.00,-0.00"/>
    <junction id="15" type="dead_end" x="424.72" y="130.99" incLanes="16_0" intLanes="" shape="424.72,130.99 423.68,127.97 424.72,130.99"/>
    <junction id="19" type="traffic_light" x="296.10" y="343.63" incLanes="-32_0 -32_1 20_0 20_1 -28_0 -28_1" intLanes=":19_0_0 :19_1_0 :19_1_1 :19_3_0 :19_3_1 :19_9_0 :19_6_0 :19_7_0 :19_8_0" shape="292.53,355.59 304.94,352.44 298.67,331.48 286.57,335.67 286.87,337.90 286.58,338.80 286.00,339.56 285.14,340.17 283.98,340.64 287.72,352.88 289.96,352.66 290.84,352.97 291.56,353.57 292.13,354.44">
        <request index="0" response="000000000" foes="000000000" cont="0"/>
        <request index="1" response="000000000" foes="111100000" cont="0"/>
        <request index="2" response="000000000" foes="111100000" cont="0"/>
        <request index="3" response="000000000" foes="100000000" cont="0"/>
        <request index="4" response="000000000" foes="100000000" cont="0"/>
        <request index="5" response="000000110" foes="100000110" cont="1"/>
        <request index="6" response="000000110" foes="000000110" cont="0"/>
        <request index="7" response="000000110" foes="000000110" cont="0"/>
        <request index="8" response="000111110" foes="000111110" cont="0"/>
    </junction>
    <junction id="2" type="traffic_light" x="244.07" y="193.18" incLanes="-20_0 -20_1 -16_0 -14_0 3_0 3_1" intLanes=":2_0_0 :2_1_0 :2_2_0 :2_3_0 :2_4_0 :2_5_0 :2_6_0 :2_7_0 :2_8_0 :2_9_0 :2_10_0 :2_11_0 :2_11_1" shape="240.38,202.09 252.48,197.91 252.17,195.66 252.44,194.75 252.99,193.97 253.83,193.33 254.95,192.82 252.87,186.77 250.17,186.91 249.32,186.22 248.79,185.03 248.59,183.32 248.72,181.12 242.36,180.37 241.72,182.34 241.16,182.82 240.43,182.97 239.54,182.77 238.49,182.25 231.79,193.15 234.12,194.53 235.91,195.61 237.30,196.64 238.42,197.89 239.41,199.62">
        <request index="0"  response="0000000000000" foes="0000000000000" cont="0"/>
        <request index="1"  response="1100000000000" foes="1111100110000" cont="0"/>
        <request index="2"  response="1110000000000" foes="1110011110000" cont="0"/>
        <request index="3"  response="1100000000000" foes="1100000000000" cont="0"/>
        <request index="4"  response="1100010000110" foes="1100110000110" cont="0"/>
        <request index="5"  response="0011010000110" foes="0011110000110" cont="0"/>
        <request index="6"  response="0010000000100" foes="0010000000100" cont="0"/>
        <request index="7"  response="1110000000100" foes="1110000110100" cont="0"/>
        <request index="8"  response="1110000110010" foes="1110000110010" cont="0"/>
        <request index="9"  response="0000000000010" foes="0000000100010" cont="0"/>
        <request index="10" response="0000000000010" foes="0000111100110" cont="0"/>
        <request index="11" response="0000000000000" foes="0000110011110" cont="0"/>
        <request index="12" response="0000000000000" foes="0000110011110" cont="0"/>
    </junction>
    <junction id="27" type="dead_end" x="146.46" y="389.41" incLanes="28_0 28_1" intLanes="" shape="146.46,389.41 148.34,395.53 146.46,389.41"/>
    <junction id="31" type="dead_end" x="323.53" y="451.61" incLanes="32_0 32_1" intLanes="" shape="323.53,451.61 329.73,450.03 323.53,451.61"/>
    <junction id="4" type="traffic_light" x="260.76" y="51.93" incLanes="5_0 5_1 14_0" intLanes=":4_0_0 :4_1_0 :4_2_0" shape="248.99,48.88 252.78,61.11 254.85,60.89 255.52,61.21 255.96,61.82 256.16,62.71 256.13,63.89 262.48,64.65 262.79,58.46 262.07,53.69 260.33,50.35 257.57,48.44 253.79,47.94">
        <request index="0" response="000" foes="000" cont="0"/>
        <request index="1" response="000" foes="000" cont="0"/>
        <request index="2" response="000" foes="000" cont="0"/>
    </junction>
    <junction id="8" type="dead_end" x="25.53" y="185.40" incLanes="9_0 9_1" intLanes="" shape="25.53,185.40 30.38,189.58 25.53,185.40"/>

    <junction id=":1_14_0" type="internal" x="106.74" y="108.65" incLanes=":1_2_0 -13_0" intLanes=":1_4_0 :1_4_1 :1_6_0 :1_7_0 :1_8_0 :1_11_0 :1_11_1 :1_13_0"/>
    <junction id=":1_15_0" type="internal" x="103.81" y="100.96" incLanes=":1_6_0 -9_0 -9_1" intLanes=":1_1_0 :1_2_0 :1_8_0 :1_9_0 :1_10_0 :1_11_0 :1_11_1"/>
    <junction id=":1_16_0" type="internal" x="94.61" y="100.60" incLanes=":1_9_0 -3_0" intLanes=":1_0_0 :1_1_0 :1_4_0 :1_4_1 :1_6_0 :1_11_0 :1_11_1 :1_13_0"/>
    <junction id=":1_17_0" type="internal" x="95.04" y="105.72" incLanes=":1_13_0 -5_0 -5_1" intLanes=":1_1_0 :1_2_0 :1_3_0 :1_4_0 :1_4_1 :1_8_0 :1_9_0"/>
    <junction id=":19_9_0" type="internal" x="294.68" y="340.46" incLanes=":19_5_0 -32_0 -32_1" intLanes=":19_1_0 :19_1_1 :19_8_0"/>

    <connection from="-13" to="5" fromLane="0" toLane="0" via=":1_7_0" tl="1" linkIndex="7" dir="r" state="o"/>
    <connection from="-13" to="3" fromLane="0" toLane="1" via=":1_8_0" tl="1" linkIndex="8" dir="s" state="o"/>
    <connection from="-13" to="9" fromLane="0" toLane="1" via=":1_9_0" tl="1" linkIndex="9" dir="l" state="o"/>
    <connection from="-14" to="16" fromLane="0" toLane="0" via=":2_6_0" tl="2" linkIndex="6" dir="r" state="o"/>
    <connection from="-14" to="20" fromLane="0" toLane="1" via=":2_7_0" tl="2" linkIndex="7" dir="s" state="o"/>
    <connection from="-14" to="-3" fromLane="0" toLane="1" via=":2_8_0" tl="2" linkIndex="8" dir="l" state="o"/>
    <connection from="-16" to="20" fromLane="0" toLane="0" via=":2_3_0" tl="2" linkIndex="3" dir="r" state="o"/>
    <connection from="-16" to="-3" fromLane="0" toLane="1" via=":2_4_0" tl="2" linkIndex="4" dir="L" state="o"/>
    <connection from="-16" to="14" fromLane="0" toLane="0" via=":2_5_0" tl="2" linkIndex="5" dir="l" state="o"/>
    <connection from="-20" to="-3" fromLane="0" toLane="0" via=":2_0_0" tl="2" linkIndex="0" dir="R" state="O"/>
    <connection from="-20" to="14" fromLane="0" toLane="0" via=":2_1_0" tl="2" linkIndex="1" dir="s" state="o"/>
    <connection from="-20" to="16" fromLane="1" toLane="0" via=":2_2_0" tl="2" linkIndex="2" dir="l" state="o"/>
    <connection from="-28" to="-20" fromLane="0" toLane="0" via=":19_6_0" tl="19" linkIndex="6" dir="r" state="o"/>
    <connection from="-28" to="-20" fromLane="1" toLane="1" via=":19_7_0" tl="19" linkIndex="7" dir="r" state="o"/>
    <connection from="-28" to="32" fromLane="1" toLane="1" via=":19_8_0" tl="19" linkIndex="8" dir="l" state="o"/>
    <connection from="-3" to="9" fromLane="0" toLane="0" via=":1_0_0" tl="1" linkIndex="0" dir="r" state="o"/>
    <connection from="-3" to="13" fromLane="0" toLane="0" via=":1_1_0" tl="1" linkIndex="1" dir="s" state="o"/>
    <connection from="-3" to="5" fromLane="1" toLane="1" via=":1_2_0" tl="1" linkIndex="2" dir="l" state="o"/>
    <connection from="-32" to="28" fromLane="0" toLane="0" via=":19_0_0" tl="19" linkIndex="0" dir="r" state="O"/>
    <connection from="-32" to="-20" fromLane="0" toLane="0" via=":19_1_0" tl="19" linkIndex="1" dir="s" state="O"/>
    <connection from="-32" to="-20" fromLane="1" toLane="1" via=":19_1_1" tl="19" linkIndex="2" dir="s" state="O"/>
    <connection from="-5" to="3" fromLane="0" toLane="0" via=":1_3_0" tl="1" linkIndex="3" dir="r" state="O"/>
    <connection from="-5" to="9" fromLane="0" toLane="0" via=":1_4_0" tl="1" linkIndex="4" dir="s" state="O"/>
    <connection from="-5" to="9" fromLane="1" toLane="1" via=":1_4_1" tl="1" linkIndex="5" dir="s" state="O"/>
    <connection from="-5" to="13" fromLane="1" toLane="0" via=":1_6_0" tl="1" linkIndex="6" dir="l" state="o"/>
    <connection from="-9" to="13" fromLane="0" toLane="0" via=":1_10_0" tl="1" linkIndex="10" dir="r" state="O"/>
    <connection from="-9" to="5" fromLane="0" toLane="0" via=":1_11_0" tl="1" linkIndex="11" dir="s" state="O"/>
    <connection from="-9" to="5" fromLane="1" toLane="1" via=":1_11_1" tl="1" linkIndex="12" dir="s" state="O"/>
    <connection from="-9" to="3" fromLane="1" toLane="1" via=":1_13_0" tl="1" linkIndex="13" dir="l" state="o"/>
    <connection from="14" to="-5" fromLane="0" toLane="0" via=":4_1_0" tl="4" linkIndex="1" dir="r" state="O"/>
    <connection from="14" to="-5" fromLane="0" toLane="1" via=":4_2_0" tl="4" linkIndex="2" dir="r" state="O"/>
    <connection from="20" to="32" fromLane="0" toLane="0" via=":19_3_0" tl="19" linkIndex="3" dir="s" state="O"/>
    <connection from="20" to="32" fromLane="1" toLane="1" via=":19_3_1" tl="19" linkIndex="4" dir="s" state="O"/>
    <connection from="20" to="28" fromLane="1" toLane="1" via=":19_5_0" tl="19" linkIndex="5" dir="l" state="o"/>
    <connection from="3" to="14" fromLane="0" toLane="0" via=":2_9_0" tl="2" linkIndex="9" dir="r" state="o"/>
    <connection from="3" to="16" fromLane="0" toLane="0" via=":2_10_0" tl="2" linkIndex="10" dir="R" state="o"/>
    <connection from="3" to="20" fromLane="0" toLane="0" via=":2_11_0" tl="2" linkIndex="11" dir="s" state="O"/>
    <connection from="3" to="20" fromLane="1" toLane="1" via=":2_11_1" tl="2" linkIndex="12" dir="s" state="O"/>
    <connection from="5" to="-14" fromLane="0" toLane="0" via=":4_0_0" tl="4" linkIndex="0" dir="l" state="O"/>

    <connection from=":1_0" to="9" fromLane="0" toLane="0" dir="r" state="M"/>
    <connection from=":1_1" to="13" fromLane="0" toLane="0" dir="s" state="M"/>
    <connection from=":1_2" to="5" fromLane="0" toLane="1" via=":1_14_0" dir="l" state="m"/>
    <connection from=":1_14" to="5" fromLane="0" toLane="1" dir="l" state="M"/>
    <connection from=":1_3" to="3" fromLane="0" toLane="0" dir="r" state="M"/>
    <connection from=":1_4" to="9" fromLane="0" toLane="0" dir="s" state="M"/>
    <connection from=":1_4" to="9" fromLane="1" toLane="1" dir="s" state="M"/>
    <connection from=":1_6" to="13" fromLane="0" toLane="0" via=":1_15_0" dir="l" state="m"/>
    <connection from=":1_15" to="13" fromLane="0" toLane="0" dir="l" state="M"/>
    <connection from=":1_7" to="5" fromLane="0" toLane="0" dir="r" state="M"/>
    <connection from=":1_8" to="3" fromLane="0" toLane="1" dir="s" state="M"/>
    <connection from=":1_9" to="9" fromLane="0" toLane="1" via=":1_16_0" dir="l" state="m"/>
    <connection from=":1_16" to="9" fromLane="0" toLane="1" dir="l" state="M"/>
    <connection from=":1_10" to="13" fromLane="0" toLane="0" dir="r" state="M"/>
    <connection from=":1_11" to="5" fromLane="0" toLane="0" dir="s" state="M"/>
    <connection from=":1_11" to="5" fromLane="1" toLane="1" dir="s" state="M"/>
    <connection from=":1_13" to="3" fromLane="0" toLane="1" via=":1_17_0" dir="l" state="m"/>
    <connection from=":1_17" to="3" fromLane="0" toLane="1" dir="l" state="M"/>
    <connection from=":19_0" to="28" fromLane="0" toLane="0" dir="r" state="M"/>
    <connection from=":19_1" to="-20" fromLane="0" toLane="0" dir="s" state="M"/>
    <connection from=":19_1" to="-20" fromLane="1" toLane="1" dir="s" state="M"/>
    <connection from=":19_3" to="32" fromLane="0" toLane="0" dir="s" state="M"/>
    <connection from=":19_3" to="32" fromLane="1" toLane="1" dir="s" state="M"/>
    <connection from=":19_5" to="28" fromLane="0" toLane="1" via=":19_9_0" dir="l" state="m"/>
    <connection from=":19_9" to="28" fromLane="0" toLane="1" dir="l" state="M"/>
    <connection from=":19_6" to="-20" fromLane="0" toLane="0" dir="r" state="M"/>
    <connection from=":19_7" to="-20" fromLane="0" toLane="1" dir="r" state="M"/>
    <connection from=":19_8" to="32" fromLane="0" toLane="1" dir="l" state="M"/>
    <connection from=":2_0" to="-3" fromLane="0" toLane="0" dir="R" state="M"/>
    <connection from=":2_1" to="14" fromLane="0" toLane="0" dir="s" state="M"/>
    <connection from=":2_2" to="16" fromLane="0" toLane="0" dir="l" state="M"/>
    <connection from=":2_3" to="20" fromLane="0" toLane="0" dir="r" state="M"/>
    <connection from=":2_4" to="-3" fromLane="0" toLane="1" dir="L" state="M"/>
    <connection from=":2_5" to="14" fromLane="0" toLane="0" dir="l" state="M"/>
    <connection from=":2_6" to="16" fromLane="0" toLane="0" dir="r" state="M"/>
    <connection from=":2_7" to="20" fromLane="0" toLane="1" dir="s" state="M"/>
    <connection from=":2_8" to="-3" fromLane="0" toLane="1" dir="l" state="M"/>
    <connection from=":2_9" to="14" fromLane="0" toLane="0" dir="r" state="M"/>
    <connection from=":2_10" to="16" fromLane="0" toLane="0" dir="R" state="M"/>
    <connection from=":2_11" to="20" fromLane="0" toLane="0" dir="s" state="M"/>
    <connection from=":2_11" to="20" fromLane="1" toLane="1" dir="s" state="M"/>
    <connection from=":4_0" to="-14" fromLane="0" toLane="0" dir="l" state="M"/>
    <connection from=":4_1" to="-5" fromLane="0" toLane="0" dir="r" state="M"/>
    <connection from=":4_2" to="-5" fromLane="0" toLane="1" dir="r" state="M"/>

</net>
