<?xml version="1.0" encoding="UTF-8"?>

<!-- generated on Wed Nov 18 08:44:28 2020 by Eclipse SUMO duarouter Version v1_7_0+0686-1a9aa4abeb
<configuration xmlns:xsi="http://www.w3.org/2001/XMLSchema-instance" xsi:noNamespaceSchemaLocation="http://sumo.dlr.de/xsd/duarouterConfiguration.xsd">

    <input>
        <net-file value="sumo_nets/36/myNet.net.xml"/>
        <route-files value="sumo_nets/36/trips.rou.xml"/>
    </input>

    <output>
        <output-file value="sumo_nets/36/trips.rou.xml.tmp"/>
        <write-trips value="true"/>
    </output>

    <time>
        <begin value="0.0"/>
        <end value="500.0"/>
    </time>

    <report>
        <no-warnings value="true"/>
        <ignore-errors value="true"/>
        <no-step-log value="true"/>
    </report>

</configuration>
-->

<routes xmlns:xsi="http://www.w3.org/2001/XMLSchema-instance" xsi:noNamespaceSchemaLocation="http://sumo.dlr.de/xsd/routes_file.xsd">
    <trip id="0" depart="1.00" from="-32" to="13"/>
    <trip id="1" depart="2.00" from="-32" to="9"/>
    <trip id="2" depart="13.00" from="-32" to="9"/>
    <trip id="3" depart="14.00" from="-13" to="-5"/>
    <trip id="4" depart="14.00" from="-13" to="28"/>
    <trip id="6" depart="17.00" from="14" to="32"/>
    <trip id="7" depart="32.00" from="-13" to="16"/>
    <trip id="8" depart="34.00" from="-9" to="28"/>
    <trip id="9" depart="37.00" from="-13" to="14"/>
    <trip id="10" depart="39.00" from="-13" to="16"/>
    <trip id="11" depart="40.00" from="-9" to="13"/>
    <trip id="12" depart="40.00" from="-28" to="-5"/>
    <trip id="13" depart="45.00" from="-28" to="16"/>
    <trip id="14" depart="57.00" from="-14" to="32"/>
    <trip id="15" depart="57.00" from="-9" to="5"/>
    <trip id="16" depart="62.00" from="-5" to="28"/>
    <trip id="17" depart="71.00" from="-13" to="32"/>
    <trip id="18" depart="74.00" from="-9" to="13"/>
    <trip id="19" depart="83.00" from="-14" to="13"/>
    <trip id="20" depart="87.00" from="-13" to="28"/>
    <trip id="21" depart="93.00" from="-13" to="32"/>
    <trip id="22" depart="102.00" from="-13" to="9"/>
    <trip id="23" depart="103.00" from="-5" to="16"/>
    <trip id="24" depart="107.00" from="5" to="9"/>
    <trip id="25" depart="107.00" from="-32" to="16"/>
    <trip id="26" depart="113.00" from="-16" to="13"/>
    <trip id="27" depart="114.00" from="-32" to="13"/>
    <trip id="28" depart="116.00" from="-13" to="32"/>
    <trip id="29" depart="120.00" from="-16" to="32"/>
    <trip id="30" depart="125.00" from="-28" to="16"/>
    <trip id="31" depart="128.00" from="-13" to="28"/>
    <trip id="32" depart="134.00" from="-9" to="13"/>
    <trip id="33" depart="136.00" from="-32" to="13"/>
    <trip id="34" depart="141.00" from="-28" to="32"/>
    <trip id="35" depart="146.00" from="-28" to="14"/>
    <trip id="36" depart="146.00" from="-32" to="13"/>
    <trip id="37" depart="146.00" from="-16" to="28"/>
    <trip id="38" depart="147.00" from="-13" to="32"/>
    <trip id="39" depart="149.00" from="-16" to="9"/>
    <trip id="40" depart="155.00" from="-13" to="16"/>
    <trip id="41" depart="158.00" from="-32" to="-14"/>
    <trip id="42" depart="159.00" from="-14" to="9"/>
    <trip id="43" depart="160.00" from="-28" to="-20"/>
    <trip id="44" depart="171.00" from="-28" to="32"/>
    <trip id="45" depart="177.00" from="-16" to="28"/>
    <trip id="46" depart="181.00" from="-16" to="9"/>
    <trip id="47" depart="184.00" from="-32" to="5"/>
    <trip id="49" depart="193.00" from="-9" to="16"/>
    <trip id="50" depart="194.00" from="-16" to="13"/>
    <trip id="51" depart="194.00" from="14" to="28"/>
    <trip id="52" depart="202.00" from="-32" to="16"/>
    <trip id="53" depart="204.00" from="-9" to="14"/>
    <trip id="54" depart="204.00" from="-32" to="28"/>
    <trip id="55" depart="209.00" from="-32" to="9"/>
    <trip id="56" depart="214.00" from="-32" to="9"/>
    <trip id="57" depart="218.00" from="-5" to="28"/>
    <trip id="58" depart="223.00" from="-28" to="16"/>
    <trip id="59" depart="229.00" from="-28" to="13"/>
    <trip id="60" depart="240.00" from="-9" to="28"/>
    <trip id="61" depart="240.00" from="-32" to="13"/>
    <trip id="62" depart="243.00" from="-20" to="16"/>
    <trip id="63" depart="244.00" from="-13" to="16"/>
    <trip id="64" depart="253.00" from="-16" to="5"/>
    <trip id="65" depart="258.00" from="-13" to="16"/>
    <trip id="66" depart="267.00" from="-20" to="13"/>
    <trip id="67" depart="273.00" from="-16" to="9"/>
    <trip id="68" depart="281.00" from="-32" to="13"/>
    <trip id="69" depart="286.00" from="-28" to="16"/>
    <trip id="70" depart="286.00" from="-16" to="32"/>
    <trip id="71" depart="288.00" from="-16" to="32"/>
    <trip id="72" depart="294.00" from="-9" to="13"/>
    <trip id="73" depart="294.00" from="-3" to="16"/>
    <trip id="75" depart="300.00" from="-28" to="13"/>
    <trip id="76" depart="304.00" from="-9" to="3"/>
    <trip id="77" depart="305.00" from="-13" to="16"/>
    <trip id="78" depart="324.00" from="-13" to="28"/>
    <trip id="79" depart="325.00" from="-9" to="13"/>
    <trip id="80" depart="329.00" from="-28" to="-14"/>
    <trip id="81" depart="335.00" from="-13" to="28"/>
    <trip id="82" depart="337.00" from="20" to="32"/>
    <trip id="83" depart="345.00" from="-32" to="13"/>
    <trip id="84" depart="354.00" from="-16" to="5"/>
    <trip id="85" depart="357.00" from="-13" to="32"/>
    <trip id="86" depart="358.00" from="-16" to="-3"/>
    <trip id="87" depart="372.00" from="-9" to="16"/>
    <trip id="88" depart="373.00" from="-28" to="13"/>
    <trip id="89" depart="375.00" from="-32" to="13"/>
    <trip id="90" depart="376.00" from="-16" to="13"/>
    <trip id="91" depart="378.00" from="-13" to="16"/>
    <trip id="92" depart="380.00" from="-20" to="9"/>
    <trip id="93" depart="381.00" from="-16" to="-3"/>
    <trip id="94" depart="385.00" from="-32" to="13"/>
    <trip id="95" depart="388.00" from="5" to="13"/>
    <trip id="96" depart="392.00" from="-32" to="9"/>
    <trip id="98" depart="400.00" from="-28" to="13"/>
    <trip id="99" depart="400.00" from="-28" to="9"/>
    <trip id="100" depart="409.00" from="-3" to="28"/>
    <trip id="101" depart="418.00" from="-13" to="28"/>
    <trip id="102" depart="420.00" from="-13" to="32"/>
    <trip id="103" depart="423.00" from="-28" to="5"/>
    <trip id="104" depart="424.00" from="-16" to="13"/>
    <trip id="105" depart="429.00" from="-13" to="32"/>
    <trip id="106" depart="433.00" from="-13" to="28"/>
    <trip id="107" depart="433.00" from="-32" to="-20"/>
    <trip id="108" depart="446.00" from="-16" to="14"/>
    <trip id="109" depart="454.00" from="14" to="9"/>
    <trip id="110" depart="456.00" from="-16" to="32"/>
    <trip id="111" depart="459.00" from="-32" to="16"/>
    <trip id="112" depart="464.00" from="5" to="32"/>
    <trip id="113" depart="468.00" from="-32" to="13"/>
    <trip id="114" depart="471.00" from="-32" to="13"/>
    <trip id="115" depart="472.00" from="-14" to="9"/>
    <trip id="116" depart="473.00" from="-28" to="-14"/>
    <trip id="118" depart="480.00" from="-28" to="16"/>
    <trip id="119" depart="487.00" from="-16" to="9"/>
    <trip id="120" depart="487.00" from="-32" to="-5"/>
    <trip id="121" depart="494.00" from="-20" to="9"/>
    <trip id="122" depart="496.00" from="-32" to="16"/>
</routes>
