<?xml version="1.0" encoding="UTF-8"?>

<!-- generated on Wed Nov 18 08:44:28 2020 by Eclipse SUMO duarouter Version v1_7_0+0686-1a9aa4abeb
<configuration xmlns:xsi="http://www.w3.org/2001/XMLSchema-instance" xsi:noNamespaceSchemaLocation="http://sumo.dlr.de/xsd/duarouterConfiguration.xsd">

    <input>
        <net-file value="sumo_nets/36/myNet.net.xml"/>
        <route-files value="sumo_nets/36/trips.rou.xml"/>
    </input>

    <output>
        <output-file value="sumo_nets/36/trips.trips.xml"/>
        <alternatives-output value="sumo_nets/36/trips.trips.alt.xml"/>
    </output>

    <time>
        <begin value="0.0"/>
        <end value="500.0"/>
    </time>

    <report>
        <no-warnings value="true"/>
        <ignore-errors value="true"/>
        <no-step-log value="true"/>
    </report>

</configuration>
-->

<routes xmlns:xsi="http://www.w3.org/2001/XMLSchema-instance" xsi:noNamespaceSchemaLocation="http://sumo.dlr.de/xsd/routes_file.xsd">
    <vehicle id="0" depart="1.00">
        <route edges="-32 -20 -3 13"/>
    </vehicle>
    <vehicle id="1" depart="2.00">
        <route edges="-32 -20 -3 9"/>
    </vehicle>
    <vehicle id="2" depart="13.00">
        <route edges="-32 -20 -3 9"/>
    </vehicle>
    <vehicle id="3" depart="14.00">
        <route edges="-13 3 14 -5"/>
    </vehicle>
    <vehicle id="4" depart="14.00">
        <route edges="-13 3 20 28"/>
    </vehicle>
    <vehicle id="6" depart="17.00">
        <route edges="14 -5 3 20 32"/>
    </vehicle>
    <vehicle id="7" depart="32.00">
        <route edges="-13 3 16"/>
    </vehicle>
    <vehicle id="8" depart="34.00">
        <route edges="-9 3 20 28"/>
    </vehicle>
    <vehicle id="9" depart="37.00">
        <route edges="-13 3 14"/>
    </vehicle>
    <vehicle id="10" depart="39.00">
        <route edges="-13 3 16"/>
    </vehicle>
    <vehicle id="11" depart="40.00">
        <route edges="-9 13"/>
    </vehicle>
    <vehicle id="12" depart="40.00">
        <route edges="-28 -20 14 -5"/>
    </vehicle>
    <vehicle id="13" depart="45.00">
        <route edges="-28 -20 16"/>
    </vehicle>
    <vehicle id="14" depart="57.00">
        <route edges="-14 20 32"/>
    </vehicle>
    <vehicle id="15" depart="57.00">
        <route edges="-9 5"/>
    </vehicle>
    <vehicle id="16" depart="62.00">
        <route edges="-5 3 20 28"/>
    </vehicle>
    <vehicle id="17" depart="71.00">
        <route edges="-13 3 20 32"/>
    </vehicle>
    <vehicle id="18" depart="74.00">
        <route edges="-9 13"/>
    </vehicle>
    <vehicle id="19" depart="83.00">
        <route edges="-14 -3 13"/>
    </vehicle>
    <vehicle id="20" depart="87.00">
        <route edges="-13 3 20 28"/>
    </vehicle>
    <vehicle id="21" depart="93.00">
        <route edges="-13 3 20 32"/>
    </vehicle>
    <vehicle id="22" depart="102.00">
        <route edges="-13 9"/>
    </vehicle>
    <vehicle id="23" depart="103.00">
        <route edges="-5 3 16"/>
    </vehicle>
    <vehicle id="24" depart="107.00">
        <route edges="5 -14 -3 9"/>
    </vehicle>
    <vehicle id="25" depart="107.00">
        <route edges="-32 -20 16"/>
    </vehicle>
    <vehicle id="26" depart="113.00">
        <route edges="-16 -3 13"/>
    </vehicle>
    <vehicle id="27" depart="114.00">
        <route edges="-32 -20 -3 13"/>
    </vehicle>
    <vehicle id="28" depart="116.00">
        <route edges="-13 3 20 32"/>
    </vehicle>
    <vehicle id="29" depart="120.00">
        <route edges="-16 20 32"/>
    </vehicle>
    <vehicle id="30" depart="125.00">
        <route edges="-28 -20 16"/>
    </vehicle>
    <vehicle id="31" depart="128.00">
        <route edges="-13 3 20 28"/>
    </vehicle>
    <vehicle id="32" depart="134.00">
        <route edges="-9 13"/>
    </vehicle>
    <vehicle id="33" depart="136.00">
        <route edges="-32 -20 -3 13"/>
    </vehicle>
    <vehicle id="34" depart="141.00">
        <route edges="-28 32"/>
    </vehicle>
    <vehicle id="35" depart="146.00">
        <route edges="-28 -20 14"/>
    </vehicle>
    <vehicle id="36" depart="146.00">
        <route edges="-32 -20 -3 13"/>
    </vehicle>
    <vehicle id="37" depart="146.00">
        <route edges="-16 20 28"/>
    </vehicle>
    <vehicle id="38" depart="147.00">
        <route edges="-13 3 20 32"/>
    </vehicle>
    <vehicle id="39" depart="149.00">
        <route edges="-16 -3 9"/>
    </vehicle>
    <vehicle id="40" depart="155.00">
        <route edges="-13 3 16"/>
    </vehicle>
    <vehicle id="41" depart="158.00">
        <route edges="-32 -20 -3 5 -14"/>
    </vehicle>
    <vehicle id="42" depart="159.00">
        <route edges="-14 -3 9"/>
    </vehicle>
    <vehicle id="43" depart="160.00">
        <route edges="-28 -20"/>
    </vehicle>
    <vehicle id="44" depart="171.00">
        <route edges="-28 32"/>
    </vehicle>
    <vehicle id="45" depart="177.00">
        <route edges="-16 20 28"/>
    </vehicle>
    <vehicle id="46" depart="181.00">
        <route edges="-16 -3 9"/>
    </vehicle>
    <vehicle id="47" depart="184.00">
        <route edges="-32 -20 -3 5"/>
    </vehicle>
    <vehicle id="49" depart="193.00">
        <route edges="-9 3 16"/>
    </vehicle>
    <vehicle id="50" depart="194.00">
        <route edges="-16 -3 13"/>
    </vehicle>
    <vehicle id="51" depart="194.00">
        <route edges="14 -5 3 20 28"/>
    </vehicle>
    <vehicle id="52" depart="202.00">
        <route edges="-32 -20 16"/>
    </vehicle>
    <vehicle id="53" depart="204.00">
        <route edges="-9 3 14"/>
    </vehicle>
    <vehicle id="54" depart="204.00">
        <route edges="-32 28"/>
    </vehicle>
    <vehicle id="55" depart="209.00">
        <route edges="-32 -20 -3 9"/>
    </vehicle>
    <vehicle id="56" depart="214.00">
        <route edges="-32 -20 -3 9"/>
    </vehicle>
    <vehicle id="57" depart="218.00">
        <route edges="-5 3 20 28"/>
    </vehicle>
    <vehicle id="58" depart="223.00">
        <route edges="-28 -20 16"/>
    </vehicle>
    <vehicle id="59" depart="229.00">
        <route edges="-28 -20 -3 13"/>
    </vehicle>
    <vehicle id="60" depart="240.00">
        <route edges="-9 3 20 28"/>
    </vehicle>
    <vehicle id="61" depart="240.00">
        <route edges="-32 -20 -3 13"/>
    </vehicle>
    <vehicle id="62" depart="243.00">
        <route edges="-20 16"/>
    </vehicle>
    <vehicle id="63" depart="244.00">
        <route edges="-13 3 16"/>
    </vehicle>
    <vehicle id="64" depart="253.00">
        <route edges="-16 -3 5"/>
    </vehicle>
    <vehicle id="65" depart="258.00">
        <route edges="-13 3 16"/>
    </vehicle>
    <vehicle id="66" depart="267.00">
        <route edges="-20 -3 13"/>
    </vehicle>
    <vehicle id="67" depart="273.00">
        <route edges="-16 -3 9"/>
    </vehicle>
    <vehicle id="68" depart="281.00">
        <route edges="-32 -20 -3 13"/>
    </vehicle>
    <vehicle id="69" depart="286.00">
        <route edges="-28 -20 16"/>
    </vehicle>
    <vehicle id="70" depart="286.00">
        <route edges="-16 20 32"/>
    </vehicle>
    <vehicle id="71" depart="288.00">
        <route edges="-16 20 32"/>
    </vehicle>
    <vehicle id="72" depart="294.00">
        <route edges="-9 13"/>
    </vehicle>
    <vehicle id="73" depart="294.00">
        <route edges="-3 5 -14 16"/>
    </vehicle>
    <vehicle id="75" depart="300.00">
        <route edges="-28 -20 -3 13"/>
    </vehicle>
    <vehicle id="76" depart="304.00">
        <route edges="-9 3"/>
    </vehicle>
    <vehicle id="77" depart="305.00">
        <route edges="-13 3 16"/>
    </vehicle>
    <vehicle id="78" depart="324.00">
        <route edges="-13 3 20 28"/>
    </vehicle>
    <vehicle id="79" depart="325.00">
        <route edges="-9 13"/>
    </vehicle>
    <vehicle id="80" depart="329.00">
        <route edges="-28 -20 -3 5 -14"/>
    </vehicle>
    <vehicle id="81" depart="335.00">
        <route edges="-13 3 20 28"/>
    </vehicle>
    <vehicle id="82" depart="337.00">
        <route edges="20 32"/>
    </vehicle>
    <vehicle id="83" depart="345.00">
        <route edges="-32 -20 -3 13"/>
    </vehicle>
    <vehicle id="84" depart="354.00">
        <route edges="-16 -3 5"/>
    </vehicle>
    <vehicle id="85" depart="357.00">
        <route edges="-13 3 20 32"/>
    </vehicle>
    <vehicle id="86" depart="358.00">
        <route edges="-16 -3"/>
    </vehicle>
    <vehicle id="87" depart="372.00">
        <route edges="-9 3 16"/>
    </vehicle>
    <vehicle id="88" depart="373.00">
        <route edges="-28 -20 -3 13"/>
    </vehicle>
    <vehicle id="89" depart="375.00">
        <route edges="-32 -20 -3 13"/>
    </vehicle>
    <vehicle id="90" depart="376.00">
        <route edges="-16 -3 13"/>
    </vehicle>
    <vehicle id="91" depart="378.00">
        <route edges="-13 3 16"/>
    </vehicle>
    <vehicle id="92" depart="380.00">
        <route edges="-20 -3 9"/>
    </vehicle>
    <vehicle id="93" depart="381.00">
        <route edges="-16 -3"/>
    </vehicle>
    <vehicle id="94" depart="385.00">
        <route edges="-32 -20 -3 13"/>
    </vehicle>
    <vehicle id="95" depart="388.00">
        <route edges="5 -14 -3 13"/>
    </vehicle>
    <vehicle id="96" depart="392.00">
        <route edges="-32 -20 -3 9"/>
    </vehicle>
    <vehicle id="98" depart="400.00">
        <route edges="-28 -20 -3 13"/>
    </vehicle>
    <vehicle id="99" depart="400.00">
        <route edges="-28 -20 -3 9"/>
    </vehicle>
    <vehicle id="100" depart="409.00">
        <route edges="-3 5 -14 20 28"/>
    </vehicle>
    <vehicle id="101" depart="418.00">
        <route edges="-13 3 20 28"/>
    </vehicle>
    <vehicle id="102" depart="420.00">
        <route edges="-13 3 20 32"/>
    </vehicle>
    <vehicle id="103" depart="423.00">
        <route edges="-28 -20 -3 5"/>
    </vehicle>
    <vehicle id="104" depart="424.00">
        <route edges="-16 -3 13"/>
    </vehicle>
    <vehicle id="105" depart="429.00">
        <route edges="-13 3 20 32"/>
    </vehicle>
    <vehicle id="106" depart="433.00">
        <route edges="-13 3 20 28"/>
    </vehicle>
    <vehicle id="107" depart="433.00">
        <route edges="-32 -20"/>
    </vehicle>
    <vehicle id="108" depart="446.00">
        <route edges="-16 14"/>
    </vehicle>
    <vehicle id="109" depart="454.00">
        <route edges="14 -5 9"/>
    </vehicle>
    <vehicle id="110" depart="456.00">
        <route edges="-16 20 32"/>
    </vehicle>
    <vehicle id="111" depart="459.00">
        <route edges="-32 -20 16"/>
    </vehicle>
    <vehicle id="112" depart="464.00">
        <route edges="5 -14 20 32"/>
    </vehicle>
    <vehicle id="113" depart="468.00">
        <route edges="-32 -20 -3 13"/>
    </vehicle>
    <vehicle id="114" depart="471.00">
        <route edges="-32 -20 -3 13"/>
    </vehicle>
    <vehicle id="115" depart="472.00">
        <route edges="-14 -3 9"/>
    </vehicle>
    <vehicle id="116" depart="473.00">
        <route edges="-28 -20 -3 5 -14"/>
    </vehicle>
    <vehicle id="118" depart="480.00">
        <route edges="-28 -20 16"/>
    </vehicle>
    <vehicle id="119" depart="487.00">
        <route edges="-16 -3 9"/>
    </vehicle>
    <vehicle id="120" depart="487.00">
        <route edges="-32 -20 14 -5"/>
    </vehicle>
    <vehicle id="121" depart="494.00">
        <route edges="-20 -3 9"/>
    </vehicle>
    <vehicle id="122" depart="496.00">
        <route edges="-32 -20 16"/>
    </vehicle>
</routes>
