<?xml version="1.0" encoding="UTF-8"?>

<!-- generated on Sun Dec 20 00:16:53 2020 by Eclipse SUMO duarouter Version v1_6_0+1927-b00c2fec16
<configuration xmlns:xsi="http://www.w3.org/2001/XMLSchema-instance" xsi:noNamespaceSchemaLocation="http://sumo.dlr.de/xsd/duarouterConfiguration.xsd">

    <input>
        <net-file value="/home/tianyushi/igrl-results/IG-RLreal/sumo_nets/Real/2020-12-20-00-16-43/osm.net.xml"/>
        <route-files value="/home/tianyushi/igrl-results/IG-RLreal/sumo_nets/Real/2020-12-20-00-16-43/osm.bicycle.trips.xml"/>
    </input>

    <output>
        <output-file value="/home/tianyushi/igrl-results/IG-RLreal/sumo_nets/Real/2020-12-20-00-16-43/osm.bicycle.trips.xml.tmp"/>
        <write-trips value="true"/>
    </output>

    <time>
        <begin value="0"/>
        <end value="3600"/>
    </time>

    <report>
        <no-warnings value="true"/>
        <ignore-errors value="true"/>
        <no-step-log value="true"/>
    </report>

</configuration>
-->

<routes xmlns:xsi="http://www.w3.org/2001/XMLSchema-instance" xsi:noNamespaceSchemaLocation="http://sumo.dlr.de/xsd/routes_file.xsd">
    <vType id="bike_bicycle" vClass="bicycle"/>
    <trip id="bike0" type="bike_bicycle" depart="0.00" departLane="best" from="312651888#1" to="-156364570#0"/>
    <trip id="bike2" type="bike_bicycle" depart="8.76" departLane="best" from="437325048#0" to="36892597#3"/>
    <trip id="bike3" type="bike_bicycle" depart="13.14" departLane="best" from="54048863" to="-23017853"/>
    <trip id="bike4" type="bike_bicycle" depart="17.52" departLane="best" from="15971197#0" to="-158023913#5"/>
    <trip id="bike6" type="bike_bicycle" depart="26.28" departLane="best" from="-15973619#15" to="-437325047#5"/>
    <trip id="bike7" type="bike_bicycle" depart="30.67" departLane="best" from="328426208#0" to="243854725#4"/>
    <trip id="bike9" type="bike_bicycle" depart="39.43" departLane="best" from="4611708#3" to="-112128825#0"/>
    <trip id="bike10" type="bike_bicycle" depart="43.81" departLane="best" from="4611708#0" to="42103021"/>
    <trip id="bike11" type="bike_bicycle" depart="48.19" departLane="best" from="-66071370" to="-312651888#1"/>
    <trip id="bike12" type="bike_bicycle" depart="52.57" departLane="best" from="751595930" to="-831860725#2"/>
    <trip id="bike14" type="bike_bicycle" depart="61.33" departLane="best" from="4613294" to="30721660#4"/>
    <trip id="bike16" type="bike_bicycle" depart="70.09" departLane="best" from="23852053#0" to="81112790#0"/>
    <trip id="bike17" type="bike_bicycle" depart="74.47" departLane="best" departSpeed="max" from="111833185#0" to="24913523#0"/>
    <trip id="bike19" type="bike_bicycle" depart="83.23" departLane="best" from="465376256#0" to="25294729#1"/>
    <trip id="bike20" type="bike_bicycle" depart="87.62" departLane="best" departSpeed="max" from="371927739" to="-168940071#4"/>
    <trip id="bike21" type="bike_bicycle" depart="92.00" departLane="best" from="-4610472#2" to="-541295974"/>
    <trip id="bike22" type="bike_bicycle" depart="96.38" departLane="best" from="-23017852#0" to="-4611696#3"/>
    <trip id="bike23" type="bike_bicycle" depart="100.76" departLane="best" from="-24241762#3" to="-4773029#2"/>
    <trip id="bike24" type="bike_bicycle" depart="105.14" departLane="best" departSpeed="max" from="312651888#0" to="114667396#0"/>
    <trip id="bike26" type="bike_bicycle" depart="113.90" departLane="best" from="-4611714#3" to="66514478"/>
    <trip id="bike29" type="bike_bicycle" depart="127.04" departLane="best" from="-339201185" to="153692976#0"/>
    <trip id="bike30" type="bike_bicycle" depart="131.42" departLane="best" from="83517336#3" to="340498982#3"/>
    <trip id="bike31" type="bike_bicycle" depart="135.80" departLane="best" from="24243092#0" to="370359204#0"/>
    <trip id="bike32" type="bike_bicycle" depart="140.18" departLane="best" from="4613292#0" to="4611708#2"/>
    <trip id="bike33" type="bike_bicycle" depart="144.56" departLane="best" from="-4610480" to="-15973619#12"/>
    <trip id="bike34" type="bike_bicycle" depart="148.95" departLane="best" departSpeed="max" from="-51167934#4" to="-4613298#1"/>
    <trip id="bike35" type="bike_bicycle" depart="153.33" departLane="best" from="-437325054#2" to="72157174#0"/>
    <trip id="bike36" type="bike_bicycle" depart="157.71" departLane="best" from="4773464#1" to="-750204886"/>
    <trip id="bike38" type="bike_bicycle" depart="166.47" departLane="best" from="60333311#0" to="202156991#0"/>
    <trip id="bike39" type="bike_bicycle" depart="170.85" departLane="best" departSpeed="max" from="-4611714#10" to="-4611713#1"/>
    <trip id="bike40" type="bike_bicycle" depart="175.23" departLane="best" from="243854725#0" to="-4612970#1"/>
    <trip id="bike41" type="bike_bicycle" depart="179.61" departLane="best" from="24993933#0" to="541763975"/>
    <trip id="bike42" type="bike_bicycle" depart="183.99" departLane="best" from="136571494#0" to="-4610480"/>
    <trip id="bike43" type="bike_bicycle" depart="188.37" departLane="best" from="882389494" to="23812656#0"/>
    <trip id="bike44" type="bike_bicycle" depart="192.75" departLane="best" from="-23755950#4" to="-168942727#3"/>
    <trip id="bike46" type="bike_bicycle" depart="201.51" departLane="best" from="4610610#1" to="169195795#8"/>
    <trip id="bike47" type="bike_bicycle" depart="205.90" departLane="best" departSpeed="max" from="-202156991#2" to="153692976#1"/>
    <trip id="bike48" type="bike_bicycle" depart="210.28" departLane="best" from="84960597#0" to="24241790#0"/>
    <trip id="bike49" type="bike_bicycle" depart="214.66" departLane="best" from="803483098#2" to="4773465#0"/>
    <trip id="bike50" type="bike_bicycle" depart="219.04" departLane="best" from="-137630045" to="4396823#1"/>
    <trip id="bike51" type="bike_bicycle" depart="223.42" departLane="best" from="35557161#2" to="24243092#0"/>
    <trip id="bike52" type="bike_bicycle" depart="227.80" departLane="best" from="-4611714#3" to="340498982#8"/>
    <trip id="bike53" type="bike_bicycle" depart="232.18" departLane="best" from="-24242882#3" to="188386313#0"/>
    <trip id="bike54" type="bike_bicycle" depart="236.56" departLane="best" from="171826985#0" to="751595930"/>
    <trip id="bike55" type="bike_bicycle" depart="240.94" departLane="best" from="4773464#1" to="-4612970#1"/>
    <trip id="bike57" type="bike_bicycle" depart="249.70" departLane="best" from="60333309#0" to="489068253"/>
    <trip id="bike58" type="bike_bicycle" depart="254.08" departLane="best" from="-4773029#2" to="340498982#3"/>
    <trip id="bike59" type="bike_bicycle" depart="258.46" departLane="best" departSpeed="max" from="301167584#0" to="-312651888#0"/>
    <trip id="bike60" type="bike_bicycle" depart="262.85" departLane="best" departSpeed="max" from="4610354" to="24243107#0"/>
    <trip id="bike61" type="bike_bicycle" depart="267.23" departLane="best" from="4610476#0" to="24241797#0"/>
    <trip id="bike62" type="bike_bicycle" depart="271.61" departLane="best" departSpeed="max" from="-111251382#2" to="-755340907"/>
    <trip id="bike63" type="bike_bicycle" depart="275.99" departLane="best" from="-156364553#1" to="625843712"/>
    <trip id="bike64" type="bike_bicycle" depart="280.37" departLane="best" from="4773465#0" to="4613299#0"/>
    <trip id="bike65" type="bike_bicycle" depart="284.75" departLane="best" from="-493008123#1" to="-19002363#10"/>
    <trip id="bike66" type="bike_bicycle" depart="289.13" departLane="best" from="4773465#0" to="73310499#2"/>
    <trip id="bike67" type="bike_bicycle" depart="293.51" departLane="best" from="-23121445#5" to="22972470#0"/>
    <trip id="bike68" type="bike_bicycle" depart="297.89" departLane="best" from="-225400578#2" to="4610610#2"/>
    <trip id="bike69" type="bike_bicycle" depart="302.27" departLane="best" from="4610355#0" to="-25294729#0"/>
    <trip id="bike70" type="bike_bicycle" depart="306.65" departLane="best" from="195401006" to="24913519#0"/>
    <trip id="bike71" type="bike_bicycle" depart="311.03" departLane="best" departSpeed="max" from="-4611714#10" to="489068253"/>
    <trip id="bike72" type="bike_bicycle" depart="315.41" departLane="best" from="15973619#10" to="-4610374"/>
    <trip id="bike74" type="bike_bicycle" depart="324.18" departLane="best" from="-43231842#3" to="-73310499#1"/>
    <trip id="bike75" type="bike_bicycle" depart="328.56" departLane="best" from="84960597#0" to="34848160#0"/>
    <trip id="bike76" type="bike_bicycle" depart="332.94" departLane="best" from="168940071#2" to="23851930"/>
    <trip id="bike77" type="bike_bicycle" depart="337.32" departLane="best" from="-24509317#2" to="-4610610#0"/>
    <trip id="bike78" type="bike_bicycle" depart="341.70" departLane="best" from="-66071366#3" to="289830064"/>
    <trip id="bike79" type="bike_bicycle" depart="346.08" departLane="best" from="-4610524" to="-4610480"/>
    <trip id="bike81" type="bike_bicycle" depart="354.84" departLane="best" from="-4610480" to="54781811#0"/>
    <trip id="bike83" type="bike_bicycle" depart="363.60" departLane="best" from="-4610610#2" to="35578559"/>
    <trip id="bike84" type="bike_bicycle" depart="367.98" departLane="best" from="-4396823#1" to="-28016312#3"/>
    <trip id="bike86" type="bike_bicycle" depart="376.74" departLane="best" from="194962375#0" to="4611713#0"/>
    <trip id="bike87" type="bike_bicycle" depart="381.13" departLane="best" from="4611708#2" to="-43156728#4"/>
    <trip id="bike88" type="bike_bicycle" depart="385.51" departLane="best" departSpeed="max" from="-23813206#2" to="183415643"/>
    <trip id="bike89" type="bike_bicycle" depart="389.89" departLane="best" from="15973619#10" to="202817674#0"/>
    <trip id="bike90" type="bike_bicycle" depart="394.27" departLane="best" from="43230886" to="36689633#0"/>
    <trip id="bike92" type="bike_bicycle" depart="403.03" departLane="best" from="153692976#0" to="-840229275"/>
    <trip id="bike93" type="bike_bicycle" depart="407.41" departLane="best" from="465376256#0" to="-4611714#1"/>
    <trip id="bike94" type="bike_bicycle" depart="411.79" departLane="best" from="-387892378" to="194069450#0"/>
    <trip id="bike95" type="bike_bicycle" depart="416.17" departLane="best" from="15971197#0" to="-4773029#2"/>
    <trip id="bike96" type="bike_bicycle" depart="420.55" departLane="best" from="-4611708#3" to="61584187#0"/>
    <trip id="bike97" type="bike_bicycle" depart="424.93" departLane="best" from="169195795#0" to="47755711#0"/>
    <trip id="bike98" type="bike_bicycle" depart="429.31" departLane="best" departSpeed="max" from="24243052#0" to="-169999355#2"/>
    <trip id="bike99" type="bike_bicycle" depart="433.69" departLane="best" from="882389497" to="4613299#2"/>
    <trip id="bike100" type="bike_bicycle" depart="438.08" departLane="best" from="803483098#0" to="6227658#2"/>
    <trip id="bike101" type="bike_bicycle" depart="442.46" departLane="best" from="4613295#0" to="-35557143#4"/>
    <trip id="bike102" type="bike_bicycle" depart="446.84" departLane="best" departSpeed="max" from="19801533" to="-4610375"/>
    <trip id="bike103" type="bike_bicycle" depart="451.22" departLane="best" from="147066248#0" to="-19002363#10"/>
    <trip id="bike104" type="bike_bicycle" depart="455.60" departLane="best" departSpeed="max" from="111833185#0" to="83517332#0"/>
    <trip id="bike105" type="bike_bicycle" depart="459.98" departLane="best" departSpeed="max" from="-4611714#10" to="4611713#0"/>
    <trip id="bike106" type="bike_bicycle" depart="464.36" departLane="best" from="171826985#0" to="169195795#8"/>
    <trip id="bike107" type="bike_bicycle" depart="468.74" departLane="best" from="751595930" to="84960597#0"/>
    <trip id="bike109" type="bike_bicycle" depart="477.50" departLane="best" from="-328426193#2" to="-6227658#1"/>
    <trip id="bike110" type="bike_bicycle" depart="481.88" departLane="best" from="77348147" to="25302636#0"/>
    <trip id="bike111" type="bike_bicycle" depart="486.26" departLane="best" from="24241762#3" to="4610476#0"/>
    <trip id="bike112" type="bike_bicycle" depart="490.64" departLane="best" from="-195411605#1" to="268002748"/>
    <trip id="bike115" type="bike_bicycle" depart="503.79" departLane="best" from="-23017852#0" to="-387892378"/>
    <trip id="bike116" type="bike_bicycle" depart="508.17" departLane="best" from="268002745" to="36892597#0"/>
    <trip id="bike117" type="bike_bicycle" depart="512.55" departLane="best" departSpeed="max" from="-4610608" to="-24992424#2"/>
    <trip id="bike118" type="bike_bicycle" depart="516.93" departLane="best" from="54048862#0" to="-4611713#0"/>
    <trip id="bike120" type="bike_bicycle" depart="525.69" departLane="best" departSpeed="max" from="158023913#0" to="268002748"/>
    <trip id="bike121" type="bike_bicycle" depart="530.07" departLane="best" from="23755961#0" to="66071370"/>
    <trip id="bike122" type="bike_bicycle" depart="534.45" departLane="best" departSpeed="max" from="-43376477#1" to="437325047#5"/>
    <trip id="bike123" type="bike_bicycle" depart="538.83" departLane="best" from="-4610610#2" to="15971197#0"/>
    <trip id="bike124" type="bike_bicycle" depart="543.21" departLane="best" departSpeed="max" from="342968607#0" to="-6228081"/>
    <trip id="bike125" type="bike_bicycle" depart="547.59" departLane="best" departSpeed="max" from="-51167934#4" to="4610600"/>
    <trip id="bike126" type="bike_bicycle" depart="551.97" departLane="best" departSpeed="max" from="-22972470#1" to="196850609#0"/>
    <trip id="bike127" type="bike_bicycle" depart="556.36" departLane="best" from="882389497" to="84960597#0"/>
    <trip id="bike128" type="bike_bicycle" depart="560.74" departLane="best" departSpeed="max" from="-22972470#1" to="-4610375"/>
    <trip id="bike129" type="bike_bicycle" depart="565.12" departLane="best" departSpeed="max" from="-4611714#10" to="66071366#2"/>
    <trip id="bike130" type="bike_bicycle" depart="569.50" departLane="best" from="490365295#0" to="495066404"/>
    <trip id="bike131" type="bike_bicycle" depart="573.88" departLane="best" from="-84960597#3" to="-312651888#2"/>
    <trip id="bike133" type="bike_bicycle" depart="582.64" departLane="best" from="305153173" to="83517336#0"/>
    <trip id="bike135" type="bike_bicycle" depart="591.40" departLane="best" from="4611714#2" to="-6228081"/>
    <trip id="bike136" type="bike_bicycle" depart="595.78" departLane="best" from="340498982#0" to="66514478"/>
    <trip id="bike137" type="bike_bicycle" depart="600.16" departLane="best" from="-25294729#0" to="-243854725#3"/>
    <trip id="bike138" type="bike_bicycle" depart="604.54" departLane="best" from="-24241790#3" to="24914141#5"/>
    <trip id="bike139" type="bike_bicycle" depart="608.92" departLane="best" from="-4611718#1" to="30721662#0"/>
    <trip id="bike140" type="bike_bicycle" depart="613.31" departLane="best" departSpeed="max" from="389705411#0" to="-4396823#1"/>
    <trip id="bike141" type="bike_bicycle" depart="617.69" departLane="best" from="312357351#0" to="-4612970#1"/>
    <trip id="bike142" type="bike_bicycle" depart="622.07" departLane="best" from="202156994#0" to="54781811#0"/>
    <trip id="bike143" type="bike_bicycle" depart="626.45" departLane="best" from="4613294" to="-23755961#1"/>
    <trip id="bike144" type="bike_bicycle" depart="630.83" departLane="best" from="15973619#10" to="-474362271"/>
    <trip id="bike145" type="bike_bicycle" depart="635.21" departLane="best" from="-112128825#1" to="4611706#0"/>
    <trip id="bike146" type="bike_bicycle" depart="639.59" departLane="best" departSpeed="max" from="312651888#0" to="-4612968#4"/>
    <trip id="bike147" type="bike_bicycle" depart="643.97" departLane="best" from="4402228" to="24913523#0"/>
    <trip id="bike148" type="bike_bicycle" depart="648.35" departLane="best" from="15977422#0" to="-11483007#2"/>
    <trip id="bike149" type="bike_bicycle" depart="652.73" departLane="best" from="-22972473#2" to="51167934#0"/>
    <trip id="bike150" type="bike_bicycle" depart="657.11" departLane="best" departSpeed="max" from="544327503#0" to="24509317#0"/>
    <trip id="bike151" type="bike_bicycle" depart="661.49" departLane="best" from="4612969#0" to="268002745"/>
    <trip id="bike152" type="bike_bicycle" depart="665.87" departLane="best" from="-30705211#6" to="-25294729#0"/>
    <trip id="bike153" type="bike_bicycle" depart="670.25" departLane="best" from="-493008124#1" to="541763975"/>
    <trip id="bike154" type="bike_bicycle" depart="674.64" departLane="best" from="4610612" to="4773465#0"/>
    <trip id="bike155" type="bike_bicycle" depart="679.02" departLane="best" from="541763975" to="-4610374"/>
    <trip id="bike156" type="bike_bicycle" depart="683.40" departLane="best" from="-4611708#3" to="-24241790#3"/>
    <trip id="bike157" type="bike_bicycle" depart="687.78" departLane="best" from="4610476#0" to="51167934#0"/>
    <trip id="bike158" type="bike_bicycle" depart="692.16" departLane="best" from="153698390#0" to="328426208#0"/>
    <trip id="bike159" type="bike_bicycle" depart="696.54" departLane="best" from="-328426193#2" to="625843712"/>
    <trip id="bike160" type="bike_bicycle" depart="700.92" departLane="best" from="465398529#0" to="82652816"/>
    <trip id="bike161" type="bike_bicycle" depart="705.30" departLane="best" from="4611711#0" to="495066404"/>
    <trip id="bike162" type="bike_bicycle" depart="709.68" departLane="best" from="-15973619#12" to="4610355#0"/>
    <trip id="bike163" type="bike_bicycle" depart="714.06" departLane="best" from="-6228081" to="66071366#0"/>
    <trip id="bike164" type="bike_bicycle" depart="718.44" departLane="best" from="4611696#4" to="47755711#0"/>
    <trip id="bike165" type="bike_bicycle" depart="722.82" departLane="best" from="4611711#0" to="-4613293#0"/>
    <trip id="bike166" type="bike_bicycle" depart="727.20" departLane="best" departSpeed="max" from="4610610#0" to="-24242882#3"/>
    <trip id="bike167" type="bike_bicycle" depart="731.59" departLane="best" departSpeed="max" from="4773464#0" to="4773464#1"/>
    <trip id="bike169" type="bike_bicycle" depart="740.35" departLane="best" from="19002357#0" to="-66071366#3"/>
    <trip id="bike170" type="bike_bicycle" depart="744.73" departLane="best" from="4610610#3" to="-4610610#2"/>
    <trip id="bike171" type="bike_bicycle" depart="749.11" departLane="best" from="-156364570#4" to="-43159545#1"/>
    <trip id="bike172" type="bike_bicycle" depart="753.49" departLane="best" from="-562707499" to="47755711#0"/>
    <trip id="bike174" type="bike_bicycle" depart="762.25" departLane="best" from="312651888#2" to="15973619#9"/>
    <trip id="bike176" type="bike_bicycle" depart="771.01" departLane="best" from="713577963" to="-243854725#3"/>
    <trip id="bike177" type="bike_bicycle" depart="775.39" departLane="best" from="803483098#0" to="-36892597#3"/>
    <trip id="bike178" type="bike_bicycle" depart="779.77" departLane="best" from="755551646#2" to="-4612970#1"/>
    <trip id="bike179" type="bike_bicycle" depart="784.15" departLane="best" from="-24241797#3" to="188386313#0"/>
    <trip id="bike180" type="bike_bicycle" depart="788.54" departLane="best" from="43230886" to="-743631784"/>
    <trip id="bike181" type="bike_bicycle" depart="792.92" departLane="best" departSpeed="max" from="301167584#0" to="23813206#0"/>
    <trip id="bike182" type="bike_bicycle" depart="797.30" departLane="best" departSpeed="max" from="112128825#0" to="25294729#1"/>
    <trip id="bike183" type="bike_bicycle" depart="801.68" departLane="best" departSpeed="max" from="-4611712" to="43156537"/>
    <trip id="bike184" type="bike_bicycle" depart="806.06" departLane="best" departSpeed="max" from="-111251382#2" to="6227658#2"/>
    <trip id="bike185" type="bike_bicycle" depart="810.44" departLane="best" departSpeed="max" from="23852056#0" to="437325054#0"/>
    <trip id="bike186" type="bike_bicycle" depart="814.82" departLane="best" from="4402228" to="35578576#0"/>
    <trip id="bike188" type="bike_bicycle" depart="823.58" departLane="best" from="340498982#0" to="-82652816"/>
    <trip id="bike189" type="bike_bicycle" depart="827.96" departLane="best" from="-505475202#1" to="465376256#0"/>
    <trip id="bike190" type="bike_bicycle" depart="832.34" departLane="best" from="415280722" to="-6228081"/>
    <trip id="bike191" type="bike_bicycle" depart="836.72" departLane="best" from="-493008124#1" to="168937986#0"/>
    <trip id="bike192" type="bike_bicycle" depart="841.10" departLane="best" from="153692976#0" to="-6227658#1"/>
    <trip id="bike193" type="bike_bicycle" depart="845.49" departLane="best" departSpeed="max" from="-24992424#5" to="169195795#7"/>
    <trip id="bike194" type="bike_bicycle" depart="849.87" departLane="best" from="72157174#0" to="369223458#0"/>
    <trip id="bike195" type="bike_bicycle" depart="854.25" departLane="best" departSpeed="max" from="544327503#0" to="318915601#0"/>
    <trip id="bike196" type="bike_bicycle" depart="858.63" departLane="best" departSpeed="max" from="-47755711#2" to="24509318"/>
    <trip id="bike197" type="bike_bicycle" depart="863.01" departLane="best" departSpeed="max" from="-111251382#2" to="-534588621#1"/>
    <trip id="bike198" type="bike_bicycle" depart="867.39" departLane="best" from="165415452#0" to="25302636#0"/>
    <trip id="bike200" type="bike_bicycle" depart="876.15" departLane="best" from="168943640#0" to="-4610375"/>
    <trip id="bike201" type="bike_bicycle" depart="880.53" departLane="best" from="194962375#0" to="544327500"/>
    <trip id="bike202" type="bike_bicycle" depart="884.91" departLane="best" from="4610612" to="-35557161#3"/>
    <trip id="bike203" type="bike_bicycle" depart="889.29" departLane="best" from="-23121445#5" to="23851917#0"/>
    <trip id="bike204" type="bike_bicycle" depart="893.67" departLane="best" from="309479676" to="-831860725#2"/>
    <trip id="bike205" type="bike_bicycle" depart="898.05" departLane="best" from="4611714#4" to="4610480"/>
    <trip id="bike206" type="bike_bicycle" depart="902.43" departLane="best" departSpeed="max" from="342968607#0" to="-4610610#0"/>
    <trip id="bike207" type="bike_bicycle" depart="906.82" departLane="best" from="-43156728#4" to="-156364570#0"/>
    <trip id="bike208" type="bike_bicycle" depart="911.20" departLane="best" from="-4611706#1" to="222328410"/>
    <trip id="bike209" type="bike_bicycle" depart="915.58" departLane="best" from="4613295#1" to="-222328410"/>
    <trip id="bike211" type="bike_bicycle" depart="924.34" departLane="best" departSpeed="max" from="-427637455" to="42103020#0"/>
    <trip id="bike212" type="bike_bicycle" depart="928.72" departLane="best" from="202817674#0" to="-4611711#1"/>
    <trip id="bike214" type="bike_bicycle" depart="937.48" departLane="best" departSpeed="max" from="454285423#0" to="4611696#4"/>
    <trip id="bike215" type="bike_bicycle" depart="941.86" departLane="best" from="-24241790#3" to="169999355#0"/>
    <trip id="bike216" type="bike_bicycle" depart="946.24" departLane="best" departSpeed="max" from="-35557161#6" to="755340907"/>
    <trip id="bike217" type="bike_bicycle" depart="950.62" departLane="best" from="23017853" to="-168943640#4"/>
    <trip id="bike218" type="bike_bicycle" depart="955.00" departLane="best" from="-4611708#3" to="465376256#0"/>
    <trip id="bike220" type="bike_bicycle" depart="963.77" departLane="best" from="340498982#8" to="83517336#3"/>
    <trip id="bike221" type="bike_bicycle" depart="968.15" departLane="best" from="268002748" to="751595928#0"/>
    <trip id="bike222" type="bike_bicycle" depart="972.53" departLane="best" from="54048863" to="312651888#2"/>
    <trip id="bike223" type="bike_bicycle" depart="976.91" departLane="best" departSpeed="max" from="389705411#0" to="23755961#0"/>
    <trip id="bike224" type="bike_bicycle" depart="981.29" departLane="best" from="4612965" to="24509318"/>
    <trip id="bike225" type="bike_bicycle" depart="985.67" departLane="best" from="541763974" to="4610472#0"/>
    <trip id="bike227" type="bike_bicycle" depart="994.43" departLane="best" from="-4611708#1" to="340498982#0"/>
    <trip id="bike228" type="bike_bicycle" depart="998.81" departLane="best" from="4610355#0" to="24241762#0"/>
    <trip id="bike229" type="bike_bicycle" depart="1003.19" departLane="best" from="30721662#0" to="-465398528"/>
    <trip id="bike230" type="bike_bicycle" depart="1007.57" departLane="best" from="-22972473#3" to="-52328295#2"/>
    <trip id="bike231" type="bike_bicycle" depart="1011.95" departLane="best" from="-4611718#1" to="-751595929#2"/>
    <trip id="bike232" type="bike_bicycle" depart="1016.33" departLane="best" from="24241762#0" to="-292429056#5"/>
    <trip id="bike233" type="bike_bicycle" depart="1020.72" departLane="best" from="-4610524" to="389101374"/>
    <trip id="bike234" type="bike_bicycle" depart="1025.10" departLane="best" departSpeed="max" from="371927739" to="-195397561#6"/>
    <trip id="bike235" type="bike_bicycle" depart="1029.48" departLane="best" from="153698394#0" to="243854725#0"/>
    <trip id="bike236" type="bike_bicycle" depart="1033.86" departLane="best" from="156364570#1" to="-454285423#4"/>
    <trip id="bike237" type="bike_bicycle" depart="1038.24" departLane="best" departSpeed="max" from="158023913#0" to="54781811#0"/>
    <trip id="bike238" type="bike_bicycle" depart="1042.62" departLane="best" from="24993933#0" to="415280722"/>
    <trip id="bike239" type="bike_bicycle" depart="1047.00" departLane="best" from="46140376#0" to="4610612"/>
    <trip id="bike240" type="bike_bicycle" depart="1051.38" departLane="best" departSpeed="max" from="111833185#0" to="-112128825#0"/>
    <trip id="bike241" type="bike_bicycle" depart="1055.76" departLane="best" from="-751595930" to="4610607"/>
    <trip id="bike242" type="bike_bicycle" depart="1060.14" departLane="best" from="4613299#0" to="751595930"/>
    <trip id="bike243" type="bike_bicycle" depart="1064.52" departLane="best" departSpeed="max" from="158023913#0" to="4610476#0"/>
    <trip id="bike244" type="bike_bicycle" depart="1068.90" departLane="best" from="24241797#0" to="30721660#4"/>
    <trip id="bike246" type="bike_bicycle" depart="1077.66" departLane="best" from="168937986#0" to="-158023913#5"/>
    <trip id="bike247" type="bike_bicycle" depart="1082.05" departLane="best" from="-66071366#1" to="369223458#1"/>
    <trip id="bike248" type="bike_bicycle" depart="1086.43" departLane="best" from="153692976#1" to="-35557143#4"/>
    <trip id="bike249" type="bike_bicycle" depart="1090.81" departLane="best" from="19002403#0" to="-25294729#0"/>
    <trip id="bike250" type="bike_bicycle" depart="1095.19" departLane="best" from="30720544#0" to="-156364570#4"/>
    <trip id="bike251" type="bike_bicycle" depart="1099.57" departLane="best" departSpeed="max" from="122820534#0" to="24993933#0"/>
    <trip id="bike252" type="bike_bicycle" depart="1103.95" departLane="best" from="-15973619#15" to="340498988#0"/>
    <trip id="bike253" type="bike_bicycle" depart="1108.33" departLane="best" departSpeed="max" from="-25294729#1" to="202156991#0"/>
    <trip id="bike254" type="bike_bicycle" depart="1112.71" departLane="best" from="-19002363#10" to="153692976#0"/>
    <trip id="bike255" type="bike_bicycle" depart="1117.09" departLane="best" from="-4396823#0" to="-755551646#1"/>
    <trip id="bike256" type="bike_bicycle" depart="1121.47" departLane="best" from="4610351#0" to="153692976#0"/>
    <trip id="bike257" type="bike_bicycle" depart="1125.85" departLane="best" departSpeed="max" from="454285423#0" to="4613299#0"/>
    <trip id="bike258" type="bike_bicycle" depart="1130.23" departLane="best" from="-4611710#2" to="-22972473#6"/>
    <trip id="bike259" type="bike_bicycle" depart="1134.61" departLane="best" from="-156364553#1" to="24243107#0"/>
    <trip id="bike260" type="bike_bicycle" depart="1139.00" departLane="best" from="882389497" to="100405009#0"/>
    <trip id="bike261" type="bike_bicycle" depart="1143.38" departLane="best" from="328426208#0" to="4611712"/>
    <trip id="bike263" type="bike_bicycle" depart="1152.14" departLane="best" from="734578686" to="-437325047#5"/>
    <trip id="bike264" type="bike_bicycle" depart="1156.52" departLane="best" from="-156364553#1" to="-312651888#0"/>
    <trip id="bike265" type="bike_bicycle" depart="1160.90" departLane="best" departSpeed="max" from="-24992424#5" to="35578559"/>
    <trip id="bike266" type="bike_bicycle" depart="1165.28" departLane="best" from="243854725#4" to="-4610472#2"/>
    <trip id="bike267" type="bike_bicycle" depart="1169.66" departLane="best" departSpeed="max" from="369223461" to="4611693#2"/>
    <trip id="bike269" type="bike_bicycle" depart="1178.42" departLane="best" from="44427220#2" to="-24243107#2"/>
    <trip id="bike270" type="bike_bicycle" depart="1182.80" departLane="best" from="4611714#4" to="77348147"/>
    <trip id="bike271" type="bike_bicycle" depart="1187.18" departLane="best" from="-24241797#3" to="-156364570#0"/>
    <trip id="bike272" type="bike_bicycle" depart="1191.56" departLane="best" departSpeed="max" from="-495066404" to="369223458#0"/>
    <trip id="bike273" type="bike_bicycle" depart="1195.95" departLane="best" from="751595930" to="15973619#10"/>
    <trip id="bike276" type="bike_bicycle" depart="1209.09" departLane="best" from="-24241762#3" to="4611706#0"/>
    <trip id="bike277" type="bike_bicycle" depart="1213.47" departLane="best" from="4613295#1" to="30720544#0"/>
    <trip id="bike278" type="bike_bicycle" depart="1217.85" departLane="best" from="-24509317#2" to="831860725#0"/>
    <trip id="bike279" type="bike_bicycle" depart="1222.23" departLane="best" from="4610480" to="-84960597#3"/>
    <trip id="bike280" type="bike_bicycle" depart="1226.61" departLane="best" from="15977422#0" to="120359703"/>
    <trip id="bike281" type="bike_bicycle" depart="1230.99" departLane="best" from="22972195#0" to="-840229277"/>
    <trip id="bike282" type="bike_bicycle" depart="1235.37" departLane="best" from="4613295#1" to="4613294"/>