<?xml version="1.0" encoding="UTF-8"?>

<!-- generated on Sun Dec 20 00:16:52 2020 by Eclipse SUMO duarouter Version v1_6_0+1927-b00c2fec16
<configuration xmlns:xsi="http://www.w3.org/2001/XMLSchema-instance" xsi:noNamespaceSchemaLocation="http://sumo.dlr.de/xsd/duarouterConfiguration.xsd">

    <input>
        <net-file value="/home/tianyushi/igrl-results/IG-RLreal/sumo_nets/Real/2020-12-20-00-16-43/osm.net.xml"/>
        <route-files value="/home/tianyushi/igrl-results/IG-RLreal/sumo_nets/Real/2020-12-20-00-16-43/osm.truck.trips.xml"/>
    </input>

    <output>
        <output-file value="/home/tianyushi/igrl-results/IG-RLreal/sumo_nets/Real/2020-12-20-00-16-43/osm.truck.trips.xml.tmp"/>
        <write-trips value="true"/>
    </output>

    <time>
        <begin value="0"/>
        <end value="3600"/>
    </time>

    <report>
        <no-warnings value="true"/>
        <ignore-errors value="true"/>
        <no-step-log value="true"/>
    </report>

</configuration>
-->

<routes xmlns:xsi="http://www.w3.org/2001/XMLSchema-instance" xsi:noNamespaceSchemaLocation="http://sumo.dlr.de/xsd/routes_file.xsd">
    <vType id="truck_truck" vClass="truck"/>
    <trip id="truck0" type="truck_truck" depart="0.00" departLane="best" departSpeed="max" from="43159545#0" to="370359204#0"/>
    <trip id="truck1" type="truck_truck" depart="3.29" departLane="best" departSpeed="max" from="4773464#0" to="-23121445#5"/>
    <trip id="truck2" type="truck_truck" depart="6.57" departLane="best" from="-437325047#5" to="23813206#0"/>
    <trip id="truck3" type="truck_truck" depart="9.86" departLane="best" from="-15973619#9" to="-437325047#3"/>
    <trip id="truck4" type="truck_truck" depart="13.14" departLane="best" departSpeed="max" from="312651888#0" to="24990040"/>
    <trip id="truck5" type="truck_truck" depart="16.43" departLane="best" from="-437325054#2" to="304627753#0"/>
    <trip id="truck6" type="truck_truck" depart="19.71" departLane="best" departSpeed="max" from="4610610#0" to="-111833185#1"/>
    <trip id="truck8" type="truck_truck" depart="26.28" departLane="best" from="734578686" to="-840229277"/>
    <trip id="truck10" type="truck_truck" depart="32.86" departLane="best" from="4610600" to="4588217"/>
    <trip id="truck12" type="truck_truck" depart="39.43" departLane="best" departSpeed="max" from="-7917219#1" to="24992424#3"/>
    <trip id="truck14" type="truck_truck" depart="46.00" departLane="best" departSpeed="max" from="4612973#0" to="268002748"/>
    <trip id="truck15" type="truck_truck" depart="49.28" departLane="best" departSpeed="max" from="369223461" to="-168940071#4"/>
    <trip id="truck17" type="truck_truck" depart="55.85" departLane="best" departSpeed="max" from="-24241762#4" to="-493008123#1"/>
    <trip id="truck18" type="truck_truck" depart="59.14" departLane="best" from="30721660#0" to="112128418#0"/>
    <trip id="truck19" type="truck_truck" depart="62.43" departLane="best" from="-755551646#1" to="-4610374"/>
    <trip id="truck20" type="truck_truck" depart="65.71" departLane="best" departSpeed="max" from="-4611712" to="6227658#2"/>
    <trip id="truck21" type="truck_truck" depart="69.00" departLane="best" from="312357351#0" to="328426208#0"/>
    <trip id="truck22" type="truck_truck" depart="72.28" departLane="best" from="-330840125#1" to="128396190#0"/>
    <trip id="truck23" type="truck_truck" depart="75.57" departLane="best" from="83517332#0" to="34848160#0"/>
    <trip id="truck24" type="truck_truck" depart="78.85" departLane="best" from="24242882#1" to="415280722"/>
    <trip id="truck27" type="truck_truck" depart="88.71" departLane="best" departSpeed="max" from="-47755711#2" to="-4613293#0"/>
    <trip id="truck28" type="truck_truck" depart="92.00" departLane="best" from="312651888#1" to="15971197#0"/>
    <trip id="truck29" type="truck_truck" depart="95.28" departLane="best" departSpeed="max" from="24243052#0" to="-4612970#1"/>
    <trip id="truck30" type="truck_truck" depart="98.57" departLane="best" from="24915070#0" to="51167934#0"/>
    <trip id="truck31" type="truck_truck" depart="101.85" departLane="best" from="882389494" to="23851917#0"/>
    <trip id="truck32" type="truck_truck" depart="105.14" departLane="best" from="4610362#4" to="173296880"/>
    <trip id="truck33" type="truck_truck" depart="108.42" departLane="best" from="-222328410" to="136571494#0"/>
    <trip id="truck35" type="truck_truck" depart="114.99" departLane="best" from="755340907" to="4773463#1"/>
    <trip id="truck37" type="truck_truck" depart="121.57" departLane="best" departSpeed="max" from="342968607#0" to="24509317#0"/>
    <trip id="truck38" type="truck_truck" depart="124.85" departLane="best" departSpeed="max" from="-4611712" to="34848160#0"/>
    <trip id="truck39" type="truck_truck" depart="128.14" departLane="best" from="-24242882#3" to="19002363#1"/>
    <trip id="truck40" type="truck_truck" depart="131.42" departLane="best" from="165415464#0" to="72157174#0"/>
    <trip id="truck41" type="truck_truck" depart="134.71" departLane="best" from="4613308#0" to="-4612970#1"/>
    <trip id="truck42" type="truck_truck" depart="137.99" departLane="best" departSpeed="max" from="19801533" to="-369223458#0"/>
    <trip id="truck43" type="truck_truck" depart="141.28" departLane="best" from="541763975" to="47755711#0"/>
    <trip id="truck44" type="truck_truck" depart="144.56" departLane="best" departSpeed="max" from="-4613293#1" to="34848160#0"/>
    <trip id="truck45" type="truck_truck" depart="147.85" departLane="best" departSpeed="max" from="292429056#0" to="-310176513#2"/>
    <trip id="truck46" type="truck_truck" depart="151.14" departLane="best" departSpeed="max" from="4588222#0" to="24243092#0"/>
    <trip id="truck47" type="truck_truck" depart="154.42" departLane="best" departSpeed="max" from="-111251382#2" to="-82652816"/>
    <trip id="truck48" type="truck_truck" depart="157.71" departLane="best" from="461526152#0" to="4613295#2"/>
    <trip id="truck49" type="truck_truck" depart="160.99" departLane="best" departSpeed="max" from="-4613299#2" to="-194069450#2"/>
    <trip id="truck50" type="truck_truck" depart="164.28" departLane="best" from="461526152#0" to="66514478"/>
    <trip id="truck51" type="truck_truck" depart="167.56" departLane="best" departSpeed="max" from="-237209664" to="23017852#1"/>
    <trip id="truck52" type="truck_truck" depart="170.85" departLane="best" departSpeed="max" from="-22972470#1" to="4610612"/>
    <trip id="truck53" type="truck_truck" depart="174.13" departLane="best" from="19002357#0" to="24992424#3"/>
    <trip id="truck54" type="truck_truck" depart="177.42" departLane="best" departSpeed="max" from="-4611712" to="4790825#0"/>
    <trip id="truck55" type="truck_truck" depart="180.71" departLane="best" from="128396190#0" to="-4610375"/>
    <trip id="truck56" type="truck_truck" depart="183.99" departLane="best" from="23851919" to="4588217"/>
    <trip id="truck57" type="truck_truck" depart="187.28" departLane="best" departSpeed="max" from="-427637455" to="-751595929#2"/>
    <trip id="truck58" type="truck_truck" depart="190.56" departLane="best" from="84960595" to="35557161#2"/>
    <trip id="truck59" type="truck_truck" depart="193.85" departLane="best" departSpeed="max" from="158023913#0" to="24241762#4"/>
    <trip id="truck60" type="truck_truck" depart="197.13" departLane="best" departSpeed="max" from="-24992424#5" to="-4610610#0"/>
    <trip id="truck61" type="truck_truck" depart="200.42" departLane="best" departSpeed="max" from="-51167934#4" to="304627753#0"/>
    <trip id="truck63" type="truck_truck" depart="206.99" departLane="best" departSpeed="max" from="-22972470#1" to="344594961"/>
    <trip id="truck65" type="truck_truck" depart="213.56" departLane="best" departSpeed="max" from="4612970#0" to="-225400578#2"/>
    <trip id="truck66" type="truck_truck" depart="216.85" departLane="best" from="-4610480" to="369223458#1"/>
    <trip id="truck67" type="truck_truck" depart="220.13" departLane="best" departSpeed="max" from="-43376477#1" to="-292429056#5"/>
    <trip id="truck68" type="truck_truck" depart="223.42" departLane="best" from="6227658#0" to="25302636#0"/>
    <trip id="truck69" type="truck_truck" depart="226.70" departLane="best" from="183415643" to="4611714#10"/>
    <trip id="truck70" type="truck_truck" depart="229.99" departLane="best" from="4610600" to="-43156728#4"/>
    <trip id="truck71" type="truck_truck" depart="233.28" departLane="best" from="136571494#0" to="222328410"/>
    <trip id="truck72" type="truck_truck" depart="236.56" departLane="best" departSpeed="max" from="389705411#0" to="369223460#0"/>
    <trip id="truck73" type="truck_truck" depart="239.85" departLane="best" from="82654055#0" to="-24241762#2"/>
    <trip id="truck74" type="truck_truck" depart="243.13" departLane="best" from="112128419#0" to="-840229277"/>
    <trip id="truck75" type="truck_truck" depart="246.42" departLane="best" departSpeed="max" from="4612973#0" to="-4611714#9"/>
    <trip id="truck76" type="truck_truck" depart="249.70" departLane="best" from="-369223458#0" to="202156991#0"/>
    <trip id="truck77" type="truck_truck" depart="252.99" departLane="best" departSpeed="max" from="122820534#0" to="-493008124#1"/>
    <trip id="truck78" type="truck_truck" depart="256.27" departLane="best" from="-4610610#3" to="560370523"/>
    <trip id="truck79" type="truck_truck" depart="259.56" departLane="best" departSpeed="max" from="158023913#0" to="4773463#1"/>
    <trip id="truck80" type="truck_truck" depart="262.85" departLane="best" from="24241762#0" to="-169999355#2"/>
    <trip id="truck81" type="truck_truck" depart="266.13" departLane="best" from="882389497" to="4613299#2"/>
    <trip id="truck82" type="truck_truck" depart="269.42" departLane="best" from="4612963" to="-339201185"/>
    <trip id="truck83" type="truck_truck" depart="272.70" departLane="best" from="195401006" to="-4610375"/>
    <trip id="truck84" type="truck_truck" depart="275.99" departLane="best" departSpeed="max" from="-7917219#1" to="82658674#2"/>
    <trip id="truck85" type="truck_truck" depart="279.27" departLane="best" from="168937986#0" to="183415643"/>
    <trip id="truck86" type="truck_truck" depart="282.56" departLane="best" from="734578686" to="84960595"/>
    <trip id="truck87" type="truck_truck" depart="285.84" departLane="best" from="-328426193#2" to="-66071366#3"/>
    <trip id="truck88" type="truck_truck" depart="289.13" departLane="best" from="23852053#0" to="4610607"/>
    <trip id="truck92" type="truck_truck" depart="302.27" departLane="best" from="-23121445#5" to="-371927739"/>
    <trip id="truck93" type="truck_truck" depart="305.56" departLane="best" from="25294728" to="369223460#0"/>
    <trip id="truck94" type="truck_truck" depart="308.84" departLane="best" from="-4610472#1" to="-25294729#0"/>
    <trip id="truck95" type="truck_truck" depart="312.13" departLane="best" departSpeed="max" from="122820534#0" to="289830064"/>
    <trip id="truck96" type="truck_truck" depart="315.41" departLane="best" departSpeed="max" from="-43156537" to="4396823#1"/>
    <trip id="truck97" type="truck_truck" depart="318.70" departLane="best" from="340498976#3" to="-713577963"/>
    <trip id="truck98" type="truck_truck" depart="321.99" departLane="best" departSpeed="max" from="-47755711#2" to="4610608"/>
    <trip id="truck99" type="truck_truck" depart="325.27" departLane="best" from="-22972473#2" to="202817674#0"/>
    <trip id="truck100" type="truck_truck" depart="328.56" departLane="best" from="882389494" to="84960597#0"/>
    <trip id="truck101" type="truck_truck" depart="331.84" departLane="best" from="-22972473#3" to="-4610375"/>
    <trip id="truck102" type="truck_truck" depart="335.13" departLane="best" departSpeed="max" from="-4611712" to="61583424#0"/>
    <trip id="truck103" type="truck_truck" depart="338.41" departLane="best" from="465376256#0" to="489068253"/>
    <trip id="truck104" type="truck_truck" depart="341.70" departLane="best" from="-751595930" to="-312651888#0"/>
    <trip id="truck105" type="truck_truck" depart="344.98" departLane="best" departSpeed="max" from="301167584#0" to="831860725#0"/>
    <trip id="truck106" type="truck_truck" depart="348.27" departLane="best" departSpeed="max" from="312651888#0" to="-112128825#0"/>
    <trip id="truck107" type="truck_truck" depart="351.56" departLane="best" from="4610610#2" to="-713577963"/>
    <trip id="truck108" type="truck_truck" depart="354.84" departLane="best" departSpeed="max" from="-25294729#1" to="-24993933#4"/>
    <trip id="truck109" type="truck_truck" depart="358.13" departLane="best" from="-24241790#3" to="24992428"/>
    <trip id="truck110" type="truck_truck" depart="361.41" departLane="best" departSpeed="max" from="-4611714#10" to="318915601#0"/>
    <trip id="truck111" type="truck_truck" depart="364.70" departLane="best" departSpeed="max" from="371927739" to="-4396823#0"/>
    <trip id="truck112" type="truck_truck" depart="367.98" departLane="best" from="30720544#0" to="-4612970#1"/>
    <trip id="truck115" type="truck_truck" depart="377.84" departLane="best" from="136571494#0" to="-4773029#2"/>
    <trip id="truck116" type="truck_truck" depart="381.13" departLane="best" departSpeed="max" from="-111251382#2" to="4611711#0"/>
    <trip id="truck117" type="truck_truck" depart="384.41" departLane="best" from="30721660#4" to="-4612970#1"/>
    <trip id="truck118" type="truck_truck" depart="387.70" departLane="best" from="153692976#1" to="-112128825#0"/>
    <trip id="truck119" type="truck_truck" depart="390.98" departLane="best" from="-22972473#6" to="489068253"/>
    <trip id="truck120" type="truck_truck" depart="394.27" departLane="best" from="4611714#0" to="289830064"/>
    <trip id="truck121" type="truck_truck" depart="397.55" departLane="best" from="-28251222#1" to="-28016312#3"/>
    <trip id="truck122" type="truck_truck" depart="400.84" departLane="best" from="-461526153" to="51167934#0"/>
    <trip id="truck123" type="truck_truck" depart="404.12" departLane="best" departSpeed="max" from="4610375" to="4773463#1"/>
    <trip id="truck124" type="truck_truck" depart="407.41" departLane="best" from="490365295#0" to="-4610374"/>
    <trip id="truck125" type="truck_truck" depart="410.70" departLane="best" from="-4610610#3" to="-24241797#3"/>
    <trip id="truck126" type="truck_truck" depart="413.98" departLane="best" departSpeed="max" from="4588222#0" to="489068253"/>
    <trip id="truck129" type="truck_truck" depart="423.84" departLane="best" departSpeed="max" from="4610610#0" to="489068253"/>
    <trip id="truck130" type="truck_truck" depart="427.12" departLane="best" from="-15973619#8" to="4610362#0"/>
    <trip id="truck131" type="truck_truck" depart="430.41" departLane="best" from="4610472#2" to="47755711#0"/>
    <trip id="truck132" type="truck_truck" depart="433.69" departLane="best" departSpeed="max" from="4610610#0" to="-4613293#0"/>
    <trip id="truck133" type="truck_truck" depart="436.98" departLane="best" departSpeed="max" from="4610354" to="-24243107#1"/>
    <trip id="truck134" type="truck_truck" depart="440.27" departLane="best" from="4613295#1" to="47707171#0"/>
    <trip id="truck135" type="truck_truck" depart="443.55" departLane="best" from="-4396823#1" to="4613293#1"/>
    <trip id="truck136" type="truck_truck" depart="446.84" departLane="best" from="168943640#0" to="-750204886"/>
    <trip id="truck137" type="truck_truck" depart="450.12" departLane="best" departSpeed="max" from="4610375" to="-4610610#0"/>
    <trip id="truck138" type="truck_truck" depart="453.41" departLane="best" from="-15973619#15" to="-43159545#1"/>
    <trip id="truck139" type="truck_truck" depart="456.69" departLane="best" from="-493008123#1" to="47755711#0"/>
    <trip id="truck140" type="truck_truck" depart="459.98" departLane="best" from="751595929#0" to="-493008124#1"/>
    <trip id="truck141" type="truck_truck" depart="463.26" departLane="best" departSpeed="max" from="309147331#0" to="15973619#9"/>
    <trip id="truck142" type="truck_truck" depart="466.55" departLane="best" from="82649618" to="24509317#0"/>
    <trip id="truck143" type="truck_truck" depart="469.84" departLane="best" from="625843712" to="-24993933#4"/>
    <trip id="truck144" type="truck_truck" depart="473.12" departLane="best" departSpeed="max" from="750204886" to="-4612970#1"/>
    <trip id="truck145" type="truck_truck" depart="476.41" departLane="best" departSpeed="max" from="389705411#0" to="-751595930"/>
    <trip id="truck146" type="truck_truck" depart="479.69" departLane="best" departSpeed="max" from="292429056#0" to="23851930"/>
    <trip id="truck147" type="truck_truck" depart="482.98" departLane="best" from="-84960595" to="268002748"/>
    <trip id="truck148" type="truck_truck" depart="486.26" departLane="best" departSpeed="max" from="-111251382#2" to="60333309#0"/>
    <trip id="truck150" type="truck_truck" depart="492.83" departLane="best" from="43230886" to="369223460#0"/>
    <trip id="truck151" type="truck_truck" depart="496.12" departLane="best" from="-73310499#1" to="-222328410"/>
    <trip id="truck154" type="truck_truck" depart="505.98" departLane="best" from="38208961" to="-713577963"/>
    <trip id="truck155" type="truck_truck" depart="509.26" departLane="best" departSpeed="max" from="111833185#0" to="-66071366#3"/>
    <trip id="truck157" type="truck_truck" depart="515.83" departLane="best" from="-4613299#1" to="24992424#3"/>
    <trip id="truck158" type="truck_truck" depart="519.12" departLane="best" from="153698394#0" to="289830064"/>
    <trip id="truck160" type="truck_truck" depart="525.69" departLane="best" departSpeed="max" from="158023913#0" to="-4610375"/>
    <trip id="truck161" type="truck_truck" depart="528.98" departLane="best" from="188914559" to="51167934#0"/>
    <trip id="truck162" type="truck_truck" depart="532.26" departLane="best" departSpeed="max" from="4610375" to="-35557161#1"/>
    <trip id="truck163" type="truck_truck" depart="535.55" departLane="best" departSpeed="max" from="-237209664" to="24241762#3"/>
    <trip id="truck164" type="truck_truck" depart="538.83" departLane="best" from="30705211#4" to="-840229277"/>
    <trip id="truck165" type="truck_truck" depart="542.12" departLane="best" from="340498982#0" to="-4610610#0"/>
    <trip id="truck166" type="truck_truck" depart="545.40" departLane="best" departSpeed="max" from="-4610608" to="22972470#0"/>
    <trip id="truck167" type="truck_truck" depart="548.69" departLane="best" from="120675240#0" to="340498988#0"/>
    <trip id="truck170" type="truck_truck" depart="558.55" departLane="best" from="312651888#2" to="-111833185#1"/>
    <trip id="truck171" type="truck_truck" depart="561.83" departLane="best" from="4402228" to="4611711#0"/>
    <trip id="truck172" type="truck_truck" depart="565.12" departLane="best" from="-24241790#3" to="188386313#0"/>
    <trip id="truck175" type="truck_truck" depart="574.97" departLane="best" from="168940071#0" to="4612963"/>
    <trip id="truck177" type="truck_truck" depart="581.54" departLane="best" from="25294728" to="66514478"/>
    <trip id="truck178" type="truck_truck" depart="584.83" departLane="best" from="374734389#0" to="23813206#0"/>
    <trip id="truck179" type="truck_truck" depart="588.12" departLane="best" from="4611711#0" to="24992424#3"/>
    <trip id="truck180" type="truck_truck" depart="591.40" departLane="best" from="4773465#0" to="4610476#0"/>
    <trip id="truck181" type="truck_truck" depart="594.69" departLane="best" from="19002357#0" to="-4612968#4"/>
    <trip id="truck183" type="truck_truck" depart="601.26" departLane="best" departSpeed="max" from="454285423#0" to="24241762#4"/>
    <trip id="truck184" type="truck_truck" depart="604.54" departLane="best" departSpeed="max" from="30705211#0" to="-474362271"/>
    <trip id="truck185" type="truck_truck" depart="607.83" departLane="best" from="-23017852#3" to="-55741054"/>
    <trip id="truck186" type="truck_truck" depart="611.11" departLane="best" departSpeed="max" from="-4611714#10" to="-755340907"/>
    <trip id="truck189" type="truck_truck" depart="620.97" departLane="best" departSpeed="max" from="112128825#0" to="24915070#0"/>
    <trip id="truck190" type="truck_truck" depart="624.26" departLane="best" departSpeed="max" from="122820534#0" to="-454285423#4"/>
    <trip id="truck192" type="truck_truck" depart="630.83" departLane="best" departSpeed="max" from="4612970#0" to="4611706#0"/>
    <trip id="truck193" type="truck_truck" depart="634.11" departLane="best" from="-82652816" to="-111833185#1"/>
    <trip id="truck194" type="truck_truck" depart="637.40" departLane="best" from="-562707499" to="4610608"/>
    <trip id="truck195" type="truck_truck" depart="640.68" departLane="best" from="156364570#0" to="-158023913#5"/>
    <trip id="truck196" type="truck_truck" depart="643.97" departLane="best" departSpeed="max" from="-495066404" to="38208961"/>
    <trip id="truck197" type="truck_truck" depart="647.26" departLane="best" departSpeed="max" from="112128825#0" to="-339201177#5"/>
    <trip id="truck198" type="truck_truck" depart="650.54" departLane="best" from="169999355#0" to="-28016312#3"/>
    <trip id="truck200" type="truck_truck" depart="657.11" departLane="best" from="-882389497" to="25294729#1"/>
    <trip id="truck201" type="truck_truck" depart="660.40" departLane="best" from="-15973619#9" to="34848160#0"/>
    <trip id="truck203" type="truck_truck" depart="666.97" departLane="best" departSpeed="max" from="454285423#0" to="128396190#0"/>
    <trip id="truck204" type="truck_truck" depart="670.25" departLane="best" from="4412868" to="4613295#2"/>
    <trip id="truck205" type="truck_truck" depart="673.54" departLane="best" from="882389497" to="100405009#0"/>
    <trip id="truck206" type="truck_truck" depart="676.83" departLane="best" departSpeed="max" from="312651888#0" to="4611714#0"/>
    <trip id="truck207" type="truck_truck" depart="680.11" departLane="best" departSpeed="max" from="312651888#0" to="4610608"/>
    <trip id="truck208" type="truck_truck" depart="683.40" departLane="best" departSpeed="max" from="72678523#0" to="-437325047#3"/>
    <trip id="truck209" type="truck_truck" depart="686.68" departLane="best" from="-156364570#0" to="-310176513#2"/>
    <trip id="truck210" type="truck_truck" depart="689.97" departLane="best" departSpeed="max" from="-24992424#5" to="369223460#0"/>
    <trip id="truck211" type="truck_truck" depart="693.25" departLane="best" from="36892597#0" to="4611708#0"/>
    <trip id="truck212" type="truck_truck" depart="696.54" departLane="best" departSpeed="max" from="-34848160#2" to="328426193#0"/>
    <trip id="truck213" type="truck_truck" depart="699.83" departLane="best" from="437325048#0" to="-24992424#2"/>
    <trip id="truck214" type="truck_truck" depart="703.11" departLane="best" from="-24241797#3" to="-156364553#1"/>
    <trip id="truck217" type="truck_truck" depart="712.97" departLane="best" departSpeed="max" from="-24241762#4" to="4611712"/>
    <trip id="truck218" type="truck_truck" depart="716.25" departLane="best" from="4612965" to="312651888#1"/>
    <trip id="truck219" type="truck_truck" depart="719.54" departLane="best" departSpeed="max" from="4610354" to="100405009#0"/>
    <trip id="truck220" type="truck_truck" depart="722.82" departLane="best" from="153692976#1" to="11483007#0"/>
    <trip id="truck221" type="truck_truck" depart="726.11" departLane="best" from="4612965" to="4613294"/>
    <trip id="truck222" type="truck_truck" depart="729.40" departLane="best" departSpeed="max" from="-24241762#4" to="751595930"/>
    <trip id="truck223" type="truck_truck" depart="732.68" departLane="best" from="30721660#0" to="4613295#2"/>
    <trip id="truck224" type="truck_truck" depart="735.97" departLane="best" from="42103021" to="755551646#2"/>
    <trip id="truck225" type="truck_truck" depart="739.25" departLane="best" from="-4611713#1" to="4612981#0"/>
    <trip id="truck226" type="truck_truck" depart="742.54" departLane="best" from="23851917#0" to="22972473#3"/>
    <trip id="truck227" type="truck_truck" depart="745.82" departLane="best" from="156364570#0" to="4588217"/>
    <trip id="truck229" type="truck_truck" depart="752.39" departLane="best" from="4611711#0" to="-23121445#5"/>
    <trip id="truck230" type="truck_truck" depart="755.68" departLane="best" from="465376256#0" to="-4611713#0"/>
    <trip id="truck232" type="truck_truck" depart="762.25" departLane="best" departSpeed="max" from="-7917219#1" to="-156364570#4"/>
    <trip id="truck233" type="truck_truck" depart="765.54" departLane="best" from="4612968#0" to="-371927739"/>
    <trip id="truck235" type="truck_truck" depart="772.11" departLane="best" departSpeed="max" from="-51167934#4" to="489068253"/>
    <trip id="truck236" type="truck_truck" depart="775.39" departLane="best" from="36892597#3" to="-4773029#2"/>
    <trip id="truck237" type="truck_truck" depart="778.68" departLane="best" from="-122820534#1" to="66514478"/>
    <trip id="truck241" type="truck_truck" depart="791.82" departLane="best" departSpeed="max" from="-23813206#2" to="-4610524"/>
    <trip id="truck242" type="truck_truck" depart="795.11" departLane="best" from="35557161#2" to="-750204886"/>
    <trip id="truck243" type="truck_truck" depart="798.39" departLane="best" departSpeed="max" from="24914141#0" to="22972454"/>
    <trip id="truck244" type="truck_truck" depart="801.68" departLane="best" from="23121445#0" to="188386313#0"/>
    <trip id="truck245" type="truck_truck" depart="804.96" departLane="best" from="437325047#5" to="-840229275"/>
    <trip id="truck246" type="truck_truck" depart="808.25" departLane="best" from="369223458#1" to="-461526153"/>
    <trip id="truck247" type="truck_truck" depart="811.53" departLane="best" from="-4610612" to="-268002745"/>
    <trip id="truck248" type="truck_truck" depart="814.82" departLane="best" from="23809670#0" to="4611696#1"/>
    <trip id="truck250" type="truck_truck" depart="821.39" departLane="best" from="-4611718#1" to="-24241762#3"/>
    <trip id="truck251" type="truck_truck" depart="824.68" departLane="best" from="-389101365#4" to="-4610610#0"/>
    <trip id="truck252" type="truck_truck" depart="827.96" departLane="best" departSpeed="max" from="-35557161#6" to="-112128825#1"/>
    <trip id="truck253" type="truck_truck" depart="831.25" departLane="best" from="23755961#2" to="-465398528"/>
    <trip id="truck254" type="truck_truck" depart="834.53" departLane="best" from="756306892" to="24992428"/>
    <trip id="truck255" type="truck_truck" depart="837.82" departLane="best" from="4613293#0" to="237209664"/>
    <trip id="truck256" type="truck_truck" depart="841.10" departLane="best" from="4613295#1" to="25302636#0"/>
    <trip id="truck257" type="truck_truck" depart="844.39" departLane="best" from="171826985#0" to="194069450#0"/>
    <trip id="truck258" type="truck_truck" depart="847.68" departLane="best" departSpeed="max" from="-35557161#6" to="-173296880"/>
    <trip id="truck259" type="truck_truck" depart="850.96" departLane="best" departSpeed="max" from="-202156991#2" to="-30705211#3"/>
    <trip id="truck261" type="truck_truck" depart="857.53" departLane="best" departSpeed="max" from="454285423#0" to="318915602#0"/>
    <trip id="truck262" type="truck_truck" depart="860.82" departLane="best" from="4610362#0" to="-4610610#0"/>
    <trip id="truck263" type="truck_truck" depart="864.10" departLane="best" from="22972454" to="202156991#0"/>
    <trip id="truck264" type="truck_truck" depart="867.39" departLane="best" departSpeed="max" from="158023913#0" to="4773463#1"/>
    <trip id="truck265" type="truck_truck" depart="870.67" departLane="best" departSpeed="max" from="43159545#0" to="66514478"/>
    <trip id="truck266" type="truck_truck" depart="873.96" departLane="best" departSpeed="max" from="-43156537" to="-4610375"/>
    <trip id="truck268" type="truck_truck" depart="880.53" departLane="best" departSpeed="max" from="-111251382#2" to="202156991#0"/>
    <trip id="truck271" type="truck_truck" depart="890.39" departLane="best" from="369223458#1" to="202156994#0"/>
    <trip id="truck272" type="truck_truck" depart="893.67" departLane="best" from="354528932" to="560370523"/>
    <trip id="truck273" type="truck_truck" depart="896.96" departLane="best" departSpeed="max" from="4610354" to="340498982#0"/>
    <trip id="truck274" type="truck_truck" depart="900.24" departLane="best" from="328426193#0" to="61584187#0"/>
    <trip id="truck275" type="truck_truck" depart="903.53" departLane="best" from="147066248#0" to="24990040"/>
    <trip id="truck276" type="truck_truck" depart="906.82" departLane="best" from="312357351#0" to="541295974"/>
    <trip id="truck277" type="truck_truck" depart="910.10" departLane="best" from="4611708#0" to="-225400578#2"/>
    <trip id="truck278" type="truck_truck" depart="913.39" departLane="best" from="437325054#0" to="25302636#0"/>
    <trip id="truck281" type="truck_truck" depart="923.24" departLane="best" from="66071366#2" to="23809670#0"/>
    <trip id="truck283" type="truck_truck" depart="929.81" departLane="best" departSpeed="max" from="-4790825#2" to="-4611718#0"/>
    <trip id="truck284" type="truck_truck" depart="933.10" departLane="best" from="4611714#2" to="268002745"/>
    <trip id="truck285" type="truck_truck" depart="936.39" departLane="best" departSpeed="max" from="72678523#0" to="882389497"/>
    <trip id="truck286" type="truck_truck" depart="939.67" departLane="best" from="340498976#3" to="-4613299#1"/>
    <trip id="truck287" type="truck_truck" depart="942.96" departLane="best" from="-188914559" to="4610610#1"/>
    <trip id="truck288" type="truck_truck" depart="946.24" departLane="best" from="173296880" to="35557161#4"/>
    <trip id="truck289" type="truck_truck" depart="949.53" departLane="best" departSpeed="max" from="544327503#0" to="-371927739"/>
    <trip id="truck291" type="truck_truck" depart="956.10" departLane="best" from="-541295974" to="-840229275"/>