<?xml version="1.0" encoding="UTF-8"?>

<!-- generated on Sun Dec 20 00:16:54 2020 by Eclipse SUMO duarouter Version v1_6_0+1927-b00c2fec16
<configuration xmlns:xsi="http://www.w3.org/2001/XMLSchema-instance" xsi:noNamespaceSchemaLocation="http://sumo.dlr.de/xsd/duarouterConfiguration.xsd">

    <input>
        <net-file value="/home/tianyushi/igrl-results/IG-RLreal/sumo_nets/Real/2020-12-20-00-16-43/osm.net.xml"/>
        <route-files value="/home/tianyushi/igrl-results/IG-RLreal/sumo_nets/Real/2020-12-20-00-16-43/osm.pedestrian.trips.xml"/>
    </input>

    <output>
        <output-file value="/home/tianyushi/igrl-results/IG-RLreal/sumo_nets/Real/2020-12-20-00-16-43/osm.pedestrian.rou.xml"/>
        <alternatives-output value="/home/tianyushi/igrl-results/IG-RLreal/sumo_nets/Real/2020-12-20-00-16-43/osm.pedestrian.rou.alt.xml"/>
    </output>

    <time>
        <begin value="0"/>
        <end value="3600"/>
    </time>

    <report>
        <no-warnings value="true"/>
        <ignore-errors value="true"/>
        <no-step-log value="true"/>
    </report>

</configuration>
-->

<routes xmlns:xsi="http://www.w3.org/2001/XMLSchema-instance" xsi:noNamespaceSchemaLocation="http://sumo.dlr.de/xsd/routes_file.xsd">
    <vType id="ped_pedestrian" vClass="pedestrian"/>
    <person id="ped1" type="ped_pedestrian" depart="2.64">
        <walk edges="-4613293#1 -4613293#0 -55741054 -62363401 77348147 156364570#0 156364570#1 156364556#0 202157002#0 24913519#0 541763975 202156995#0 -23121445#5 -339201177#5 -4610480"/>
    </person>
    <person id="ped2" type="ped_pedestrian" depart="5.27">
        <walk edges="44427220#0 44427220#2 24241762#0 19002363#3 -55741054 -62363401 77348147 156364570#0 156364570#1 156364556#0 202157002#0 24913519#0 541763975 202156995#0 -23121445#5 -339201177#5 4610480 35578557"/>
    </person>
    <person id="ped3" type="ped_pedestrian" depart="7.91">
        <walk edges="541295974 -6228081 222328410 4610472#2 4610472#0 35578559 22972219#0 35578557 4610480 -339201177#5 -23121445#5"/>
    </person>
    <person id="ped4" type="ped_pedestrian" depart="10.55">
        <walk edges="168940071#0 -24243107#1 -339201185 35578559 22972219#0 35578557 4610480 168937986#0 -474362271 -43231842#3 4611693#2 831860725#0 -15973619#8"/>
    </person>
    <person id="ped5" type="ped_pedestrian" depart="13.18">
        <walk edges="-4610375 24243107#0 -339201185 35578559 22972219#0 35578557 -4610480 -168937986#5 -4610524 66071370 4611713#0 4611713#1 23017853"/>
    </person>
    <person id="ped6" type="ped_pedestrian" depart="15.82">
        <walk edges="-15973619#12 -43376477#1"/>
    </person>
    <person id="ped7" type="ped_pedestrian" depart="18.46">
        <walk edges="340498982#0 330840125#0 882389494 340498988#0 169999355#0 -11483007#2 465376256#0 24243052#1"/>
    </person>
    <person id="ped8" type="ped_pedestrian" depart="21.09">
        <walk edges="-4610472#1 -24243101 24243107#0 24243107#2 437325054#0 -465398528 -560370523 437325047#5 437325047#0 30721660#4 30721660#0 183415643 83517332#0 -84960597#3 11103418 -19002363#10 -19002363#2 -19002363#0 19002357#0 19002403#0 24914141#5 268002748"/>
    </person>
    <person id="ped9" type="ped_pedestrian" depart="23.73">
        <walk edges="4611718#1 4611718#0 -15973619#8 831860725#0 4611696#1 54781811#0 43230886 251884680 54048862#0 202156995#0 541763975 24913519#0 24913523#0 171826985#0 415280722 24990040 -24241797#3 -24993933#4 -369223458#1 4613299#0 -112128825#1"/>
    </person>
    <person id="ped10" type="ped_pedestrian" depart="26.37">
        <walk edges="4611714#4 4611714#2 -4611714#1 -4611713#1 -4611713#0 -66071370 -474362271 168937986#0 4610480 35578557 22972219#0 35578559 4610472#0 4610472#2 222328410 -6228081 541295974 541295978#0 374734389#0"/>
    </person>
    <person id="ped11" type="ped_pedestrian" depart="29.00">
        <walk edges="-77348147 -156364570#0 -156364570#4 490365295#0 4773465#0 24915070#0 534588621#0 61583424#0 751595930 606078065 24992428 82654055#0 60333313 23851917#0 -328426193#2"/>
    </person>
    <person id="ped12" type="ped_pedestrian" depart="31.64">
        <walk edges="753730627#0 625843712 23851919 23851930 81112790#0 606078065 751595930 61583424#0 534588621#0 24915070#0 4773465#0 490365295#0 -156364570#4 156364570#0 77348147 370359204#0 -743631784 46140376#0 84960597#0 36892597#3 36892597#0 -755340907"/>
    </person>
    <person id="ped13" type="ped_pedestrian" depart="34.28">
        <walk edges="-23755961#2 -4611711#1 4611713#1 4611708#2 4611708#3 831860725#0 4611696#1 54781811#0 43230886 251884680 54048862#0 202156995#0 541763975 24913519#0 202157002#0 156364556#0 156364570#1 156364570#0 77348147 -62363401 -55741054 19002363#3 24241762#0 44427220#2 -23852056#2"/>
    </person>
    <person id="ped14" type="ped_pedestrian" depart="36.91">
        <walk edges="46140376#0 -743631784 370359204#0 77348147 156364570#0 156364570#1 156364556#0 202157002#0 24913519#0 541763975 202156995#0 54048862#0 251884680 43230886 305153173"/>
    </person>
    <person id="ped15" type="ped_pedestrian" depart="39.55">
        <walk edges="4611718#0 734578686 -831860725#2 23755950#0 -66071370 -474362271 168937986#0 4610480 35578557 22972219#0 35578559 -339201185 24243107#0 24243107#2 437325054#0"/>
    </person>
    <person id="ped16" type="ped_pedestrian" depart="42.19">
        <walk edges="24241790#0 19002363#3 -55741054 -62363401 -77348147 -156364570#0 -156364570#4 490365295#0 4773465#0 24915070#0 534588621#0 61583424#0 751595930 606078065 81112790#0"/>
    </person>
    <person id="ped17" type="ped_pedestrian" depart="44.82">
        <walk edges="120359703 15973619#14 15973619#10 15973619#9 734578686 -831860725#2 23755950#0 66071366#2 66071366#0 -389101365#4 243854725#0"/>
    </person>
    <person id="ped18" type="ped_pedestrian" depart="47.46">
        <walk edges="4613293#0 55741054 25294728 -77348147 -156364570#0 -156364570#4 490365295#0 4773465#0 24915070#0 534588621#0 61583424#0 -751595929#2 128396190#0 309479676"/>
    </person>
    <person id="ped19" type="ped_pedestrian" depart="50.10">
        <walk edges="4773029#0 -66071366#3 66071370 43231842#0 305153173 43230886 251884680"/>
    </person>
    <person id="ped20" type="ped_pedestrian" depart="52.73">
        <walk edges="389101374 -22972473#6 -22972473#3 -22972473#2 -243854725#3 -24242882#0 882389497 194069450#0 461526153 -169999355#2"/>
    </person>
    <person id="ped21" type="ped_pedestrian" depart="55.37">
        <walk edges="-4610608 -4610612 4610610#2 173296880 4773463#1 541763976 -15973619#15 -15973619#12 15973619#9 -4611718#0 -4611718#1 4611714#0 4611711#0 23755961#2 23755961#0 389101373#0 -24997595#1 47707171#0 -47755711#2"/>
    </person>
    <person id="ped22" type="ped_pedestrian" depart="58.01">
        <walk edges="-22972473#6 389101374 -23755961#1 -23755961#2 -4611711#1 4611714#0 -4611718#1 -4611718#0 15973619#9 -15973619#12 -15973619#15 541763976 4773463#1 173296880 -4610610#2"/>
    </person>
    <person id="ped23" type="ped_pedestrian" depart="60.64">
        <walk edges="-24241762#3 803483098#2 803483098#0 4613294 4613295#1 4613298#0 369223458#1 -4613299#1"/>
    </person>
    <person id="ped24" type="ped_pedestrian" depart="63.28">
        <walk edges="328426208#0 -52328295#2 -755551646#1 -43156728#4 4611696#4 54781811#0 43230886 354528932 168937986#0 4610480 35578557 22972219#0 35578559 4610472#0 4610472#2 222328410 -6228081 541295974 541295978#0 111251382#0"/>
    </person>
    <person id="ped25" type="ped_pedestrian" depart="65.92">
        <walk edges="112128419#0 415280722 171826985#0 24913523#0 24913519#0 541763975 202156995#0 541763974 61584187#0 54048863 15971197#0 169195795#0 169195795#2 169195795#7 169195795#8 153698394#2 -4412868"/>
    </person>
    <person id="ped27" type="ped_pedestrian" depart="71.19">
        <walk edges="340498976#1 114667396#0 169195795#7 169195795#2 169195795#0 354528932 43230886 54781811#0 120675240#0 755551646#2 755551647 52328295#0 328426193#0 30705211#4"/>
    </person>
    <person id="ped28" type="ped_pedestrian" depart="73.83">
        <walk edges="-35557161#4 -23755961#1 389101374 -22972473#6 -22972473#3 -22972473#2 243854725#0 243854725#4 330840125#0 153698394#2 153698394#0 35578576#0 24243092#0 492340367#0 -24243101 24243107#0 24243107#2 437325054#0"/>
    </person>
    <person id="ped29" type="ped_pedestrian" depart="76.46">
        <walk edges="-339201185 35578559 22972219#0 35578557 4610480 168937986#0 -474362271 -43231842#3 4611693#2 831860725#0 -15973619#8 -15973619#9 15973619#10 15973619#14 120359703"/>
    </person>
    <person id="ped31" type="ped_pedestrian" depart="81.74">
        <walk edges="24509318 15973619#14 541763976 4773463#1 753730627#0 625843712 23851919 23851930 81112790#0 606078065 751595930 61583424#0 534588621#0 24915070#0 4773465#0 490365295#0 -156364570#4 156364570#0 77348147 370359204#0 -743631784 46140376#0 84960597#0 36892597#3 36892597#0"/>
    </person>
    <person id="ped32" type="ped_pedestrian" depart="84.37">
        <walk edges="4613299#0 -369223458#1 -24993933#4 -24241797#3 24990040 415280722 171826985#0 24915070#0 534588621#0 61583424#0 751595930 606078065 81112790#0 23851930 23851919 625843712 52328295#0 4610610#3 4610610#2"/>
    </person>
    <person id="ped33" type="ped_pedestrian" depart="87.01">
        <walk edges="-4610610#0 -4610610#1 4610610#2 173296880 4773463#1 541763976 -15973619#15 -15973619#12 -15973619#9"/>
    </person>
    <person id="ped34" type="ped_pedestrian" depart="89.65">
        <walk edges="-454285423#4 4610351#0 30721660#0 183415643 83517332#0 -84960597#3 11103418 -19002363#10 -19002363#2 -19002363#0 4613292#0 4613308#0 756306892 195401017#3 195401006 72678523#0"/>
    </person>
    <person id="ped35" type="ped_pedestrian" depart="92.28">
        <walk edges="490365295#0 -28016312#3 30721662#0 4610362#4 4610362#0 -437325047#3 -437325047#5 -560370523 -465398528 -437325054#2 -6227658#3"/>
    </person>
    <person id="ped36" type="ped_pedestrian" depart="94.92">
        <walk edges="340498988#0 882389494 153698394#2"/>
    </person>
    <person id="ped37" type="ped_pedestrian" depart="97.56">
        <walk edges="60333311#0 24992428 606078065 751595930 61583424#0 -534588621#1 202156994#0 831694400 54048862#0 251884680 354528932 340498982#8 340498982#3 340498982#0 461526152#0 194069450#0"/>
    </person>
    <person id="ped39" type="ped_pedestrian" depart="102.83">
        <walk edges="24914141#0 24914141#5 112128419#0 415280722 171826985#0 24913523#0 24913519#0 541763975 202156995#0 54048862#0 251884680 43230886 54781811#0 4611696#1 831860725#0 -15973619#8 -4611718#0"/>
    </person>
    <person id="ped40" type="ped_pedestrian" depart="105.47">
        <walk edges="25294729#1 25294729#0 -156364570#4 490365295#0 4773465#0 24913523#0 24913519#0 541763975"/>
    </person>
    <person id="ped41" type="ped_pedestrian" depart="108.10">
        <walk edges="156364566#0 24992428 606078065 751595930 61583424#0 -534588621#1 202157002#0 156364556#0 23809670#0 30721662#0 4610362#4 4610362#0 -437325047#3 -437325047#5 -560370523 -465398528 437325054#0 24243107#2 -4610375"/>
    </person>
    <person id="ped42" type="ped_pedestrian" depart="110.74">
        <walk edges="882389494 153698394#2 153698394#0 35578576#0 -195397561#6 -4610472#2 222328410 -6228081 541295974 30720544#0 42103020#0 42103021 35269774#0 544327500 489068253 204032443#0 -153692976#0 237209664"/>
    </person>
    <person id="ped43" type="ped_pedestrian" depart="113.38">
        <walk edges="-23755961#1 -23755961#2 -4611711#1 4611714#0 -4611718#1 -4611718#0 15973619#9 -15973619#12 -15973619#15 541763976 4773463#1 -173296880"/>
    </person>
    <person id="ped44" type="ped_pedestrian" depart="116.01">
        <walk edges="-24242882#3 68647306#0 28251222#0 340498982#8 15971197#0 54048863 61584187#0 541763974 202156995#0 541763975 24913519#0 202157002#0 156364556#0 156364570#1 156364570#0 77348147 370359204#0 316746323#0"/>
    </person>
    <person id="ped45" type="ped_pedestrian" depart="118.65">
        <walk edges="4611708#3 4611708#2 -4611713#0 -66071370 -474362271 168937986#0 4610480 35578557 22972219#0 35578559 -339201185 -24243107#1 168940071#0"/>
    </person>
    <person id="ped47" type="ped_pedestrian" depart="123.92">
        <walk edges="84960597#0 11103418 -24241762#2 44427220#2 23852056#0"/>
    </person>
    <person id="ped48" type="ped_pedestrian" depart="126.56">
        <walk edges="803483098#2 -4613293#0 -55741054 -62363401 77348147 156364570#0 156364570#1 156364556#0 202157002#0 24913519#0 541763975 202156995#0 541763974 61584187#0 54048863 15971197#0 340498982#8 28251222#0 4773029#0"/>
    </person>
    <person id="ped49" type="ped_pedestrian" depart="129.20">
        <walk edges="-136571494#4 -751595928#1 -562707499 606078071#0 -534588621#1 202156994#0 831694400 54048862#0 251884680 43230886"/>
    </person>
    <person id="ped50" type="ped_pedestrian" depart="131.83">
        <walk edges="36689633#0 73310499#2 4610355#0 -36892597#3 11103418 -19002363#10 -19002363#2 -19002363#0 4613292#0 24241797#0"/>
    </person>
    <person id="ped51" type="ped_pedestrian" depart="134.47">
        <walk edges="-4612422 195430954#0 328426256#0 328426253"/>
    </person>
    <person id="ped52" type="ped_pedestrian" depart="137.11">
        <walk edges="-24243107#1 -339201185 -195411605#1 -15977422#1 114667396#0 169195795#8"/>
    </person>
    <person id="ped53" type="ped_pedestrian" depart="139.74">
        <walk edges="19002363#3 -55741054 -62363401 -77348147 -156364570#0 -156364570#4 490365295#0 4773465#0 24915070#0 534588621#0 61583424#0 751595929#0"/>
    </person>
    <person id="ped54" type="ped_pedestrian" depart="142.38">
        <walk edges="489068253 204032443#0 318915601#0 4396823#1 -4396823#0 437325054#0 24243107#2 24243107#0 -339201185 35578559 22972219#0 35578557 4610480 168937986#0 -474362271 -66071370 -4611713#0 -4611713#1 -4611714#1 -4611718#1"/>
    </person>
    <person id="ped55" type="ped_pedestrian" depart="145.02">
        <walk edges="22972473#3 -22972473#2 243854725#0 24242882#1 68647306#0 28251222#0 340498982#8 15971197#0 54048863 61584187#0 541763974 202156995#0 541763975 24913519#0 202157002#0 156364556#0 156364570#1 156364570#0 77348147 370359204#0 -743631784 46140376#0 -84960597#3 -36892597#3 -36892597#2"/>
    </person>
    <person id="ped56" type="ped_pedestrian" depart="147.65">
        <walk edges="60333309#0 23812656#0 23851917#0 328426208#0 304627753#0 4773464#1 15973619#14 15973619#10 15973619#9 -4611718#0 -4611718#1 4611714#0 -4611711#1 -23755961#2 -23755961#1 389101374 24997595#0 47707170#0 47755711#0"/>
    </person>
    <person id="ped58" type="ped_pedestrian" depart="152.93">
        <walk edges="30705211#4 328426193#0 23851917#0 60333313 82654055#0 24992428 606078065 751595930 61583424#0 -534588621#1 202157002#0 156364556#0 23809670#0 30721662#0 4610362#4 4610362#0 -437325047#3 -437325047#5 560370523 437325048#0 -165415464#2 165415454#0 -312651888#2 -312651888#1"/>
    </person>
    <person id="ped59" type="ped_pedestrian" depart="155.56">
        <walk edges="4610476#0 24243092#0 35578576#0 153698394#0 153698394#2 -330840125#1 461526152#0 194069450#0 882389497 24242882#0"/>
    </person>
    <person id="ped60" type="ped_pedestrian" depart="158.20">
        <walk edges="4610610#3 52328295#0 625843712 23851919 23851930 81112790#0 606078065 751595930 61583424#0 534588621#0 24915070#0 4773465#0 490365295#0 -156364570#4 -156364570#0 -77348147 -62363401 -55741054 19002363#3 24241762#0"/>
    </person>
    <person id="ped61" type="ped_pedestrian" depart="160.84">
        <walk edges="-111251382#2 541295978#0 541295974 -6228081 222328410 -4610472#2 -195397561#6 35578576#0 153698394#0 153698394#2 -330840125#1 -66071373#3"/>
    </person>
    <person id="ped62" type="ped_pedestrian" depart="163.47">
        <walk edges="-153698390#1 -541295974 6228081 222328410 4610472#2 4610472#0 35578559 22972219#0 35578557 4610480 168937986#0 354528932 43230886 54781811#0 120675240#0 755551646#2 755551647 52328295#0 625843712"/>
    </person>
    <person id="ped63" type="ped_pedestrian" depart="166.11">
        <walk edges="492340367#0 -24243101 24243107#0 24243107#2 437325054#0 -465398528 -560370523 437325047#5 437325047#0 30721660#4 30721660#0 183415643 83517332#0 -84960597#3 11103418 24241762#0 24241762#3 803483098#2 4613293#1"/>
    </person>
    <person id="ped64" type="ped_pedestrian" depart="168.75">
        <walk edges="-55741054 -19002363#10 11103418 -84960597#3 83517332#0 183415643 30721660#0 30721660#4 437325047#0 437325047#5 -560370523 -465398528 437325054#0 24243107#2 24243107#0 -24243101 4610472#0 -195397561#6"/>
    </person>
    <person id="ped65" type="ped_pedestrian" depart="171.38">
        <walk edges="490365295#0 -156364570#4 156364570#0 77348147 370359204#0 316746323#0 84960595 183415643 30721660#0 4610351#0 -454285423#4 493008124#0 73310499#0 73310499#2"/>
    </person>
    <person id="ped66" type="ped_pedestrian" depart="174.02">
        <walk edges="-23121445#5 -339201177#5 4610480 35578557 22972219#0 35578559 4610472#0 4610472#2 222328410"/>
    </person>
    <person id="ped67" type="ped_pedestrian" depart="176.66">
        <walk edges="-222328410 222328410 4610472#2"/>
    </person>
    <person id="ped69" type="ped_pedestrian" depart="181.93">
        <walk edges="202156994#0 831694400 -23121445#5 -339201177#5 4610480 35578557 22972219#0 35578559 -339201185 24243107#0 24243107#2"/>
    </person>
    <person id="ped71" type="ped_pedestrian" depart="187.20">
        <walk edges="168940071#0 -24243107#2 437325054#0 -465398528 -560370523 437325047#5 225400578#0 -454285423#4"/>
    </person>
    <person id="ped72" type="ped_pedestrian" depart="189.84">
        <walk edges="24242882#0 882389497 194069450#0 461526152#0 -330840125#1 153698394#2 153698394#0 35578576#0 24243092#0 492340367#0 -24243101 24243107#0 24243107#2 437325054#0"/>
    </person>
    <person id="ped73" type="ped_pedestrian" depart="192.48">
        <walk edges="-437325047#3 4610362#0 4610362#4 30721662#0 23809670#0 156364556#0 202157002#0 -534588621#1 606078071#0 -562707499"/>
    </person>
    <person id="ped74" type="ped_pedestrian" depart="195.11">
        <walk edges="84960597#0 46140376#0 -743631784 370359204#0 77348147 156364570#0 156364570#1 156364556#0 202157002#0 24913519#0 541763975 202156995#0 541763974 61584187#0 54048863 15971197#0 340498982#8 340498982#3 340498982#0"/>
    </person>
    <person id="ped75" type="ped_pedestrian" depart="197.75">
        <walk edges="171423001#0 24242882#0 243854725#0 -389101365#4 66071366#0 66071366#2 23755950#0 4611696#1 4611696#4 -43156728#4 755551647 52328295#0 23851917#0 23812656#0"/>
    </person>
    <person id="ped76" type="ped_pedestrian" depart="200.39">
        <walk edges="-24992424#2 840860363#1 24992428 606078065 751595930 61583424#0 -534588621#1 202156994#0 831694400 -23121445#5 -339201177#5 -4610480"/>
    </person>
    <person id="ped77" type="ped_pedestrian" depart="203.02">
        <walk edges="-755551646#1 755551646#2 202817674#0 136571494#0 751595928#0 -562707499 606078071#0 -534588621#1 202157002#0 156364556#0 23809670#0 30721662#0 4610362#4 4610362#0 -437325047#3 -437325047#5 560370523 437325048#0 -165415464#2 165415454#0 312651888#2 268002745"/>
    </person>
    <person id="ped78" type="ped_pedestrian" depart="205.66">
        <walk edges="-4610610#1 -4610610#2 -4610610#3 -755551646#1 -43156728#4 4611696#4 54781811#0 43230886 354528932 168937986#0 4610480 35578557 22972219#0 -137630045 -4610472#1"/>
    </person>
    <person id="ped79" type="ped_pedestrian" depart="208.30">
        <walk edges="-225400578#2 437325047#5 -560370523 -465398528 -4396823#0 -4396823#1 318915602#0"/>
    </person>
    <person id="ped80" type="ped_pedestrian" depart="210.93">
        <walk edges="-4610610#0 -4610610#1 -4610610#2 -4610610#3 -755551646#1 -43156728#4 4611696#4 54781811#0"/>
    </person>
    <person id="ped81" type="ped_pedestrian" depart="213.57">
        <walk edges="47707171#0 24997595#0 22972473#4 22972473#3 22972473#0 -243854725#3 -66071373#3 -330840125#1 153698394#2 153698394#0 35578576#0 24243092#0 492340367#0 -24243101 24243107#0 24243107#2 437325054#0 -465398528 -560370523 437325047#5 -225400578#2"/>
    </person>
    <person id="ped82" type="ped_pedestrian" depart="216.21">
        <walk edges="-4611696#3 -23755950#4 -66071366#3 66071366#0 389101365#0 35557143#0"/>
    </person>
    <person id="ped84" type="ped_pedestrian" depart="221.48">
        <walk edges="66071370 -23755950#4 -4611696#3 120675240#0 38208961 -136571494#4 -751595928#1 -562707499 751595930 606078065 24992428 840860363#1 -24992424#2 24992424#3"/>
    </person>
    <person id="ped85" type="ped_pedestrian" depart="224.12">
        <walk edges="202156991#0 -23121445#5 54048862#0 251884680 43230886 54781811#0 4611696#4"/>
    </person>
    <person id="ped86" type="ped_pedestrian" depart="226.75">
        <walk edges="4611718#0 734578686 -831860725#2 23755950#0 -66071370 -474362271 168937986#0 4610480 35578557 22972219#0 35578559 4610472#0 4610472#2 222328410 6228081 -541295974 -153698390#1 -427637455"/>
    </person>
    <person id="ped87" type="ped_pedestrian" depart="229.39">
        <walk edges="-23852056#2 44427220#2 24241762#0 19002363#3 -55741054 -62363401 77348147 156364570#0 156364570#1 156364556#0 202157002#0 24913519#0 541763975 202156995#0 541763974 61584187#0 54048863 15971197#0 169195795#0 169195795#2"/>
    </person>
    <person id="ped89" type="ped_pedestrian" depart="234.66">
        <walk edges="437325054#0 24243107#2 24243107#0 -24243101 492340367#0 24243092#0 35578576#0 153698394#0 153698394#2 330840125#0 243854725#4 243854725#0 -389101365#4 35557161#0 35557161#2 35557161#4"/>
    </person>
    <person id="ped90" type="ped_pedestrian" depart="237.30">
        <walk edges="831860725#0 4611696#1 54781811#0 43230886 251884680 54048862#0 202156995#0 541763975 24913519#0 202157002#0 156364556#0 156364570#1 156364570#0 77348147 -62363401 -55741054 19002363#3 24241762#0 -24241762#2"/>
    </person>
    <person id="ped91" type="ped_pedestrian" depart="239.94">
        <walk edges="156364570#1 156364556#0 202157002#0 -534588621#1 606078071#0 -562707499 751595928#0 136571494#0 202817674#0 755551646#2 -755551646#1"/>
    </person>
    <person id="ped92" type="ped_pedestrian" depart="242.57">
        <walk edges="4773029#0 -66071366#3 4611713#0 4611713#1 -4611711#1"/>
    </person>
    <person id="ped93" type="ped_pedestrian" depart="245.21">
        <walk edges="-427637455 -153698390#1 30720544#0 -168940071#4 168940071#0 -24243107#2 437325054#0 -465398528 -560370523 437325047#5 437325047#0 30721660#4 30721660#0 183415643 83517332#0 -84960597#3 11103418 -19002363#10 -19002363#2 -19002363#0 19002357#0"/>
    </person>
    <person id="ped94" type="ped_pedestrian" depart="247.85">
        <walk edges="168940071#0 -24243107#2 437325054#0 -465398528 -560370523 437325047#5 437325047#0 30721660#4 30721660#0 183415643 83517332#0 -84960597#3 11103418 -19002363#10 -19002363#2 -19002363#0 19002357#0 24993933#0 369223458#1 -4613299#1"/>
    </person>
    <person id="ped95" type="ped_pedestrian" depart="250.48">
        <walk edges="-4611712 4611711#0 -4611713#1 -4611713#0 -66071370 -474362271 15971197#0 54048863 61584187#0"/>
    </person>
    <person id="ped96" type="ped_pedestrian" depart="253.12">
        <walk edges="183415643 84960595 316746323#0 370359204#0 77348147 156364570#0 156364570#1 156364556#0 202157002#0 24913519#0 541763975 202156995#0 541763974 61584187#0 54048863 15971197#0 340498982#8 28251222#0 4773029#0"/>
    </person>
    <person id="ped97" type="ped_pedestrian" depart="255.76">
        <walk edges="24243107#2 437325054#0 -465398528 -560370523 437325047#5 437325047#0 30721660#4 30721660#0 183415643 83517332#0 -84960597#3 11103418 -19002363#10 -19002363#2 -19002363#0"/>
    </person>
    <person id="ped98" type="ped_pedestrian" depart="258.39">
        <walk edges="882389497 194069450#0 461526152#0 340498982#0 340498982#3 340498982#8 15971197#0 54048863 61584187#0 541763974 202156995#0 541763975 24913519#0 24913523#0 171826985#0 415280722 24990040 24241797#0 4613292#0 19002363#0 4613295#0"/>
    </person>
    <person id="ped99" type="ped_pedestrian" depart="261.03">
        <walk edges="803483098#0 803483098#2 24241762#3 24241762#0 11103418 -84960597#3 83517332#0 183415643 30721660#0 30721660#4 437325047#0 437325047#5 -560370523 -465398528 437325054#0 6227658#2"/>
    </person>
    <person id="ped100" type="ped_pedestrian" depart="263.67">
        <walk edges="461526152#0 -66071373#3 -243854725#3 -35557143#4"/>
    </person>
    <person id="ped102" type="ped_pedestrian" depart="268.94">
        <walk edges="156364570#0 77348147 370359204#0 316746323#0 84960595 183415643 30721660#0 30721660#4 437325047#0 437325047#5 -560370523 -465398528 437325054#0 24243107#2 24243107#0 -24243101 4610472#0 -195397561#6"/>
    </person>
    <person id="ped103" type="ped_pedestrian" depart="271.58">
        <walk edges="120359703 541763976 4773463#1 753730627#0 625843712 23851919 23851930 81112790#0 606078065 751595930 61583424#0 534588621#0 24915070#0 4773465#0 490365295#0 -156364570#4 156364570#0 77348147 370359204#0 -743631784 46140376#0 83517332#0"/>
    </person>
    <person id="ped105" type="ped_pedestrian" depart="276.85">
        <walk edges="19002403#0 19002357#0 -19002363#0 -19002363#2 -19002363#10 11103418 -84960597#3 83517332#0 183415643 30721660#0 30721660#4 437325047#0 437325047#5 -560370523 -465398528 437325054#0 -24243107#2 168940071#0"/>
    </person>
    <person id="ped106" type="ped_pedestrian" depart="279.49">
        <walk edges="753730627#0 625843712 23851919 23851930 81112790#0 606078065 751595930 61583424#0 534588621#0 24915070#0 4773465#0 490365295#0 -156364570#4 156364570#0 77348147 370359204#0 -743631784 46140376#0 84960597#0"/>
    </person>
    <person id="ped107" type="ped_pedestrian" depart="282.13">
        <walk edges="24509318 15973619#14 4773464#1 304627753#0 328426208#0 23851917#0 23812656#0 60333309#0 -43159545#1 43159545#0"/>
    </person>
    <person id="ped108" type="ped_pedestrian" depart="284.76">
        <walk edges="-312651888#2 165415454#0 -165415464#2 437325048#0 560370523 -437325047#5 -437325047#3 4610362#0 4610362#4 30721662#0 23809670#0 156364556#0 202157002#0 -534588621#1 61583424#0 751595930 606078065 24992428 840860363#1 -24992424#2 168943640#0 495066404 -495066404"/>
    </person>
    <person id="ped110" type="ped_pedestrian" depart="290.04">
        <walk edges="24243052#0 24243052#1 190447768#1 -465376254 -4610472#2 4610472#0 -24243101 24243107#0 24243107#2 437325054#0 -465398528 -560370523 437325047#5 437325047#0 30721660#4 4610351#0"/>
    </person>
    <person id="ped111" type="ped_pedestrian" depart="292.67">
        <walk edges="-194069450#2 461526152#0 340498982#0 340498982#3 340498982#8 15971197#0 54048863 61584187#0 541763974 202156995#0 541763975 24913519#0 24913523#0 4773465#0 490365295#0 -156364570#4 25294729#0 25294729#1"/>
    </person>
    <person id="ped112" type="ped_pedestrian" depart="295.31">
        <walk edges="22972473#4 22972473#3 22972473#0 35557143#0 171423001#0 -882389497 -194069450#2 -461526153 -169999355#2 11483007#0 465376256#0 24243052#1 465376243"/>
    </person>
    <person id="ped114" type="ped_pedestrian" depart="300.58">
        <walk edges="-22972473#6 389101374 -23755961#1 -23755961#2 -4611711#1 4611713#1 4611708#2 4611708#3 831860725#0 4611696#1 54781811#0 43230886 251884680 54048862#0 202156995#0 541763975 24913519#0 202157002#0 156364556#0 156364570#1 156364570#0 77348147 370359204#0 -743631784 46140376#0 -84960597#3 -36892597#3 -36892597#2 -371927739"/>
    </person>
    <person id="ped115" type="ped_pedestrian" depart="303.22">
        <walk edges="289966097 60333311#0 82654055#0 60333313 23851917#0 328426208#0 304627753#0 4773464#1 15973619#14 15973619#10 15973619#9 -4611718#0 -4611718#1 4611714#0 4611711#0 23755961#2 35557161#5"/>
    </person>
    <person id="ped116" type="ped_pedestrian" depart="305.86">
        <walk edges="-4610612 4610607 -43156728#4 38208961 -136571494#4 -751595928#1 -562707499 606078071#0 -534588621#1 24913523#0 171826985#0 415280722 -24990040"/>
    </person>
    <person id="ped117" type="ped_pedestrian" depart="308.49">
        <walk edges="54048863 15971197#0 340498982#8 28251222#0 68647306#0 -4611706#1 -35557161#1 -35557161#3 -4611710#2"/>
    </person>
    <person id="ped118" type="ped_pedestrian" depart="311.13">
        <walk edges="289966097 60333311#0 24992428 82649618 4611726 309479676"/>
    </person>
    <person id="ped119" type="ped_pedestrian" depart="313.77">
        <walk edges="165415464#0 437325048#0 560370523 437325047#5 437325047#0 30721660#4 30721660#0 183415643 84960595 316746323#0 370359204#0 77348147 -156364570#0 -25294729#0 25294729#1"/>
    </person>
    <person id="ped120" type="ped_pedestrian" depart="316.40">
        <walk edges="23851919 625843712 52328295#0 755551647 755551646#2 120675240#0 -4611696#3 -23755950#4 66071370"/>
    </person>
    <person id="ped121" type="ped_pedestrian" depart="319.04">
        <walk edges="-437325054#2 -465398528 -560370523 -437325047#5 -437325047#3 4610362#0 4610362#4 30721662#0 23809670#0 156364556#0 202157002#0 -534588621#1 61583424#0 751595930 606078065 81112790#0 23851930 23851919 625843712 52328295#0 4610610#3 4610610#2 4610610#1 43156537"/>
    </person>
    <person id="ped122" type="ped_pedestrian" depart="321.68">
        <walk edges="-4611706#1 -24242882#3 243854725#4 330840125#0 153698394#2"/>
    </person>
    <person id="ped123" type="ped_pedestrian" depart="324.31">
        <walk edges="35557161#2 35557161#0 -389101365#4 243854725#0 243854725#4 330840125#0 153698394#2 153698394#0 35578576#0 24243092#0 492340367#0 -24243101 24243107#0 24243107#2 437325054#0 -465398528 -560370523 -437325047#5 51167934#0 -51167934#4"/>
    </person>