<?xml version="1.0" encoding="UTF-8"?>

<!-- generated on Sun Dec 20 00:16:51 2020 by Eclipse SUMO duarouter Version v1_6_0+1927-b00c2fec16
<configuration xmlns:xsi="http://www.w3.org/2001/XMLSchema-instance" xsi:noNamespaceSchemaLocation="http://sumo.dlr.de/xsd/duarouterConfiguration.xsd">

    <input>
        <net-file value="/home/tianyushi/igrl-results/IG-RLreal/sumo_nets/Real/2020-12-20-00-16-43/osm.net.xml"/>
        <route-files value="/home/tianyushi/igrl-results/IG-RLreal/sumo_nets/Real/2020-12-20-00-16-43/osm.passenger.trips.xml"/>
    </input>

    <output>
        <output-file value="/home/tianyushi/igrl-results/IG-RLreal/sumo_nets/Real/2020-12-20-00-16-43/osm.passenger.trips.xml.tmp"/>
        <write-trips value="true"/>
    </output>

    <time>
        <begin value="0"/>
        <end value="3600"/>
    </time>

    <report>
        <no-warnings value="true"/>
        <ignore-errors value="true"/>
        <no-step-log value="true"/>
    </report>

</configuration>
-->

<routes xmlns:xsi="http://www.w3.org/2001/XMLSchema-instance" xsi:noNamespaceSchemaLocation="http://sumo.dlr.de/xsd/routes_file.xsd">
    <vType id="veh_passenger" vClass="passenger"/>
    <trip id="veh0" type="veh_passenger" depart="0.00" departLane="best" from="318915601#0" to="-156364570#4"/>
    <trip id="veh2" type="veh_passenger" depart="4.38" departLane="best" from="4402228" to="369223460#0"/>
    <trip id="veh3" type="veh_passenger" depart="6.57" departLane="best" from="541763974" to="-24241762#3"/>
    <trip id="veh4" type="veh_passenger" depart="8.76" departLane="best" from="19002363#3" to="-158023913#5"/>
    <trip id="veh5" type="veh_passenger" depart="10.95" departLane="best" from="-4611706#1" to="24241762#4"/>
    <trip id="veh7" type="veh_passenger" depart="15.33" departLane="best" from="-4611708#2" to="30705211#4"/>
    <trip id="veh8" type="veh_passenger" depart="17.52" departLane="best" from="4611726" to="-112128825#0"/>
    <trip id="veh10" type="veh_passenger" depart="21.90" departLane="best" departSpeed="max" from="-874528353#4" to="-36892597#2"/>
    <trip id="veh11" type="veh_passenger" depart="24.09" departLane="best" from="751595929#0" to="112128419#0"/>
    <trip id="veh12" type="veh_passenger" depart="26.28" departLane="best" from="-24241790#3" to="-24509317#2"/>
    <trip id="veh13" type="veh_passenger" depart="28.47" departLane="best" from="461526152#0" to="316746323#0"/>
    <trip id="veh14" type="veh_passenger" depart="30.67" departLane="best" from="4611718#0" to="4610374"/>
    <trip id="veh15" type="veh_passenger" depart="32.86" departLane="best" departSpeed="max" from="24914141#0" to="81112790#0"/>
    <trip id="veh17" type="veh_passenger" depart="37.24" departLane="best" departSpeed="max" from="4773464#0" to="289830064"/>
    <trip id="veh18" type="veh_passenger" depart="39.43" departLane="best" departSpeed="max" from="371927739" to="-188914559"/>
    <trip id="veh19" type="veh_passenger" depart="41.62" departLane="best" departSpeed="max" from="-4611712" to="-82658674#5"/>
    <trip id="veh20" type="veh_passenger" depart="43.81" departLane="best" departSpeed="max" from="-23813206#2" to="-4612970#1"/>
    <trip id="veh21" type="veh_passenger" depart="46.00" departLane="best" from="-24509317#2" to="-751595930"/>
    <trip id="veh22" type="veh_passenger" depart="48.19" departLane="best" from="312651888#1" to="156364556#0"/>
    <trip id="veh23" type="veh_passenger" depart="50.38" departLane="best" from="153692976#1" to="-4611708#2"/>
    <trip id="veh24" type="veh_passenger" depart="52.57" departLane="best" from="-465398528" to="66514478"/>
    <trip id="veh26" type="veh_passenger" depart="56.95" departLane="best" from="-369223458#1" to="4610362#4"/>
    <trip id="veh27" type="veh_passenger" depart="59.14" departLane="best" departSpeed="max" from="-35557161#6" to="165415454#0"/>
    <trip id="veh28" type="veh_passenger" depart="61.33" departLane="best" from="83517336#0" to="344594961"/>
    <trip id="veh29" type="veh_passenger" depart="63.52" departLane="best" from="268002748" to="389101373#0"/>
    <trip id="veh30" type="veh_passenger" depart="65.71" departLane="best" from="4613299#0" to="4611718#1"/>
    <trip id="veh31" type="veh_passenger" depart="67.90" departLane="best" from="-751595928#1" to="-743631784"/>
    <trip id="veh32" type="veh_passenger" depart="70.09" departLane="best" departSpeed="max" from="-4610608" to="713577963"/>
    <trip id="veh33" type="veh_passenger" depart="72.28" departLane="best" from="4773465#0" to="100405009#0"/>
    <trip id="veh34" type="veh_passenger" depart="74.47" departLane="best" from="60333311#0" to="22972470#0"/>
    <trip id="veh35" type="veh_passenger" depart="76.66" departLane="best" from="-461526153" to="-493008124#1"/>
    <trip id="veh36" type="veh_passenger" depart="78.85" departLane="best" from="289966281" to="-66071366#3"/>
    <trip id="veh37" type="veh_passenger" depart="81.04" departLane="best" departSpeed="max" from="301167584#0" to="541763976"/>
    <trip id="veh38" type="veh_passenger" depart="83.23" departLane="best" from="168940071#2" to="-4611718#0"/>
    <trip id="veh39" type="veh_passenger" depart="85.42" departLane="best" departSpeed="max" from="-24241762#4" to="-19002363#0"/>
    <trip id="veh40" type="veh_passenger" depart="87.62" departLane="best" departSpeed="max" from="-24992424#5" to="340498982#0"/>
    <trip id="veh41" type="veh_passenger" depart="89.81" departLane="best" from="4611693#2" to="190447768#1"/>
    <trip id="veh42" type="veh_passenger" depart="92.00" departLane="best" from="-22972473#3" to="168937986#0"/>
    <trip id="veh43" type="veh_passenger" depart="94.19" departLane="best" from="84960597#0" to="24990040"/>
    <trip id="veh44" type="veh_passenger" depart="96.38" departLane="best" from="803483098#0" to="489068253"/>
    <trip id="veh45" type="veh_passenger" depart="98.57" departLane="best" from="-122820534#1" to="4588217"/>
    <trip id="veh46" type="veh_passenger" depart="100.76" departLane="best" from="35557161#2" to="24992424#3"/>
    <trip id="veh47" type="veh_passenger" depart="102.95" departLane="best" from="-465398528" to="344594961"/>
    <trip id="veh48" type="veh_passenger" depart="105.14" departLane="best" departSpeed="max" from="-24992424#5" to="202156991#0"/>
    <trip id="veh49" type="veh_passenger" depart="107.33" departLane="best" from="202156995#0" to="751595930"/>
    <trip id="veh50" type="veh_passenger" depart="109.52" departLane="best" from="4773465#0" to="-66071370"/>
    <trip id="veh51" type="veh_passenger" depart="111.71" departLane="best" departSpeed="max" from="23852056#0" to="-437325054#2"/>
    <trip id="veh52" type="veh_passenger" depart="113.90" departLane="best" from="-541295974" to="344594961"/>
    <trip id="veh53" type="veh_passenger" depart="116.09" departLane="best" from="30721660#4" to="-35557161#4"/>
    <trip id="veh54" type="veh_passenger" depart="118.28" departLane="best" departSpeed="max" from="4610354" to="24992424#3"/>
    <trip id="veh55" type="veh_passenger" depart="120.47" departLane="best" from="4610479#0" to="24992424#0"/>
    <trip id="veh56" type="veh_passenger" depart="122.66" departLane="best" from="-156364570#0" to="625843712"/>
    <trip id="veh57" type="veh_passenger" depart="124.85" departLane="best" from="490365295#0" to="465376256#0"/>
    <trip id="veh59" type="veh_passenger" depart="129.23" departLane="best" from="490365295#0" to="73310499#2"/>
    <trip id="veh60" type="veh_passenger" depart="131.42" departLane="best" from="-24241762#3" to="23813206#0"/>
    <trip id="veh61" type="veh_passenger" depart="133.61" departLane="best" from="-23121445#5" to="4611712"/>
    <trip id="veh62" type="veh_passenger" depart="135.80" departLane="best" from="4610355#0" to="-30705211#3"/>
    <trip id="veh63" type="veh_passenger" depart="137.99" departLane="best" from="22972473#4" to="251884680"/>
    <trip id="veh64" type="veh_passenger" depart="140.18" departLane="best" from="-461526153" to="495066404"/>
    <trip id="veh65" type="veh_passenger" depart="142.37" departLane="best" from="19002403#0" to="-4611710#2"/>
    <trip id="veh66" type="veh_passenger" depart="144.56" departLane="best" from="24915070#0" to="4610374"/>
    <trip id="veh67" type="veh_passenger" depart="146.76" departLane="best" from="-4610374" to="100405009#0"/>
    <trip id="veh68" type="veh_passenger" depart="148.95" departLane="best" from="84960595" to="34848160#0"/>
    <trip id="veh71" type="veh_passenger" depart="155.52" departLane="best" departSpeed="max" from="-874528353#4" to="305153173"/>
    <trip id="veh72" type="veh_passenger" depart="157.71" departLane="best" departSpeed="max" from="-237209664" to="340498982#8"/>
    <trip id="veh73" type="veh_passenger" depart="159.90" departLane="best" departSpeed="max" from="-4611712" to="55741054"/>
    <trip id="veh74" type="veh_passenger" depart="162.09" departLane="best" departSpeed="max" from="4773464#0" to="-22972473#6"/>
    <trip id="veh75" type="veh_passenger" depart="164.28" departLane="best" departSpeed="max" from="-4611714#10" to="36892597#0"/>
    <trip id="veh76" type="veh_passenger" depart="166.47" departLane="best" from="66071370" to="289830064"/>
    <trip id="veh77" type="veh_passenger" depart="168.66" departLane="best" from="22972454" to="4612963"/>
    <trip id="veh78" type="veh_passenger" depart="170.85" departLane="best" from="4611718#0" to="-4610375"/>
    <trip id="veh79" type="veh_passenger" depart="173.04" departLane="best" from="-24243101" to="196850609#0"/>
    <trip id="veh80" type="veh_passenger" depart="175.23" departLane="best" from="19002403#0" to="22972473#4"/>
    <trip id="veh81" type="veh_passenger" depart="177.42" departLane="best" from="43231842#0" to="369223460#0"/>
    <trip id="veh82" type="veh_passenger" depart="179.61" departLane="best" from="831694400" to="-24990040"/>
    <trip id="veh83" type="veh_passenger" depart="181.80" departLane="best" from="169195795#0" to="114667396#0"/>
    <trip id="veh84" type="veh_passenger" depart="183.99" departLane="best" departSpeed="max" from="4773464#0" to="-52328295#2"/>
    <trip id="veh86" type="veh_passenger" depart="188.37" departLane="best" from="19002363#1" to="-751595930"/>
    <trip id="veh87" type="veh_passenger" depart="190.56" departLane="best" departSpeed="max" from="19801533" to="489068253"/>
    <trip id="veh88" type="veh_passenger" depart="192.75" departLane="best" from="24997595#0" to="-194069450#2"/>
    <trip id="veh89" type="veh_passenger" depart="194.94" departLane="best" from="882389497" to="4773029#0"/>
    <trip id="veh90" type="veh_passenger" depart="197.13" departLane="best" from="756306892" to="6227658#2"/>
    <trip id="veh91" type="veh_passenger" depart="199.32" departLane="best" from="23812656#0" to="-4611713#0"/>
    <trip id="veh94" type="veh_passenger" depart="205.90" departLane="best" from="202157002#0" to="194069450#0"/>
    <trip id="veh95" type="veh_passenger" depart="208.09" departLane="best" from="751595929#0" to="84960595"/>
    <trip id="veh97" type="veh_passenger" depart="212.47" departLane="best" from="-35557143#4" to="-840229275"/>
    <trip id="veh98" type="veh_passenger" depart="214.66" departLane="best" from="756306892" to="289966097"/>
    <trip id="veh99" type="veh_passenger" depart="216.85" departLane="best" from="24915070#0" to="4611693#2"/>
    <trip id="veh100" type="veh_passenger" depart="219.04" departLane="best" departSpeed="max" from="-22972470#1" to="289966281"/>
    <trip id="veh101" type="veh_passenger" depart="221.23" departLane="best" from="24241762#3" to="4790825#0"/>
    <trip id="veh102" type="veh_passenger" depart="223.42" departLane="best" from="-35557161#3" to="755551647"/>
    <trip id="veh103" type="veh_passenger" depart="225.61" departLane="best" departSpeed="max" from="-23813206#2" to="-4610375"/>
    <trip id="veh105" type="veh_passenger" depart="229.99" departLane="best" departSpeed="max" from="-4611714#10" to="-292429056#5"/>
    <trip id="veh106" type="veh_passenger" depart="232.18" departLane="best" from="541295974" to="-493008124#1"/>
    <trip id="veh107" type="veh_passenger" depart="234.37" departLane="best" from="19002357#0" to="289966281"/>
    <trip id="veh108" type="veh_passenger" depart="236.56" departLane="best" from="24913519#0" to="66071370"/>
    <trip id="veh109" type="veh_passenger" depart="238.75" departLane="best" from="-4610472#2" to="4412868"/>
    <trip id="veh110" type="veh_passenger" depart="240.94" departLane="best" departSpeed="max" from="-4611714#10" to="169999355#0"/>
    <trip id="veh111" type="veh_passenger" depart="243.13" departLane="best" departSpeed="max" from="342968607#0" to="-840229277"/>
    <trip id="veh112" type="veh_passenger" depart="245.32" departLane="best" from="-751595929#2" to="4611706#0"/>
    <trip id="veh113" type="veh_passenger" depart="247.51" departLane="best" departSpeed="max" from="-237209664" to="22972454"/>
    <trip id="veh114" type="veh_passenger" depart="249.70" departLane="best" from="882389494" to="84960597#0"/>
    <trip id="veh115" type="veh_passenger" depart="251.89" departLane="best" departSpeed="max" from="-237209664" to="-4611711#1"/>
    <trip id="veh116" type="veh_passenger" depart="254.08" departLane="best" from="-461526153" to="66071366#0"/>
    <trip id="veh117" type="veh_passenger" depart="256.27" departLane="best" from="153692976#0" to="-369223458#0"/>
    <trip id="veh118" type="veh_passenger" depart="258.46" departLane="best" departSpeed="max" from="4612973#0" to="43156537"/>
    <trip id="veh119" type="veh_passenger" depart="260.65" departLane="best" departSpeed="max" from="309147331#0" to="831860725#0"/>
    <trip id="veh120" type="veh_passenger" depart="262.85" departLane="best" from="340498976#3" to="-112128825#0"/>
    <trip id="veh122" type="veh_passenger" depart="267.23" departLane="best" from="340498988#0" to="66514478"/>
    <trip id="veh123" type="veh_passenger" depart="269.42" departLane="best" from="-30705211#6" to="-292429056#5"/>
    <trip id="veh124" type="veh_passenger" depart="271.61" departLane="best" departSpeed="max" from="-24992424#5" to="25294729#1"/>
    <trip id="veh125" type="veh_passenger" depart="273.80" departLane="best" departSpeed="max" from="-47755711#2" to="318915601#0"/>
    <trip id="veh126" type="veh_passenger" depart="275.99" departLane="best" from="415280722" to="-4610610#3"/>
    <trip id="veh127" type="veh_passenger" depart="278.18" departLane="best" departSpeed="max" from="312651888#0" to="-66071370"/>
    <trip id="veh128" type="veh_passenger" depart="280.37" departLane="best" from="23851917#0" to="55741054"/>
    <trip id="veh129" type="veh_passenger" depart="282.56" departLane="best" from="46140376#0" to="-24243101"/>
    <trip id="veh130" type="veh_passenger" depart="284.75" departLane="best" from="19002403#0" to="-751595929#2"/>
    <trip id="veh131" type="veh_passenger" depart="286.94" departLane="best" departSpeed="max" from="-111251382#2" to="4611714#10"/>
    <trip id="veh132" type="veh_passenger" depart="289.13" departLane="best" from="312651888#2" to="-66071366#1"/>
    <trip id="veh133" type="veh_passenger" depart="291.32" departLane="best" departSpeed="max" from="44427220#0" to="25294728"/>
    <trip id="veh134" type="veh_passenger" depart="293.51" departLane="best" from="194069450#0" to="-112128825#0"/>
    <trip id="veh135" type="veh_passenger" depart="295.70" departLane="best" from="-23755950#4" to="534588621#0"/>
    <trip id="veh136" type="veh_passenger" depart="297.89" departLane="best" departSpeed="max" from="544327503#0" to="24992428"/>
    <trip id="veh137" type="veh_passenger" depart="300.08" departLane="best" from="-339201185" to="-30705211#3"/>
    <trip id="veh138" type="veh_passenger" depart="302.27" departLane="best" from="-66071366#1" to="544327500"/>
    <trip id="veh139" type="veh_passenger" depart="304.46" departLane="best" from="4611706#0" to="489068253"/>
    <trip id="veh140" type="veh_passenger" depart="306.65" departLane="best" from="541763976" to="-4611708#3"/>
    <trip id="veh141" type="veh_passenger" depart="308.84" departLane="best" from="-4612968#4" to="-24997595#1"/>
    <trip id="veh142" type="veh_passenger" depart="311.03" departLane="best" from="4610600" to="534588621#0"/>
    <trip id="veh144" type="veh_passenger" depart="315.41" departLane="best" from="-35557143#4" to="625843712"/>
    <trip id="veh145" type="veh_passenger" depart="317.60" departLane="best" departSpeed="max" from="4773464#0" to="82649618"/>
    <trip id="veh146" type="veh_passenger" depart="319.79" departLane="best" from="4611726" to="52328295#0"/>
    <trip id="veh147" type="veh_passenger" depart="321.99" departLane="best" from="-84960595" to="625843712"/>
    <trip id="veh148" type="veh_passenger" depart="324.18" departLane="best" from="4611713#1" to="489068253"/>
    <trip id="veh149" type="veh_passenger" depart="326.37" departLane="best" from="4611726" to="-73310499#1"/>
    <trip id="veh150" type="veh_passenger" depart="328.56" departLane="best" from="4610610#1" to="-28016312#3"/>
    <trip id="veh151" type="veh_passenger" depart="330.75" departLane="best" from="4773464#1" to="489068253"/>
    <trip id="veh152" type="veh_passenger" depart="332.94" departLane="best" from="-4611708#3" to="4613299#2"/>
    <trip id="veh155" type="veh_passenger" depart="339.51" departLane="best" from="-15973619#15" to="-4610480"/>
    <trip id="veh156" type="veh_passenger" depart="341.70" departLane="best" from="-82652816" to="489068253"/>
    <trip id="veh157" type="veh_passenger" depart="343.89" departLane="best" from="755551647" to="-755340907"/>
    <trip id="veh158" type="veh_passenger" depart="346.08" departLane="best" from="318915602#0" to="171826985#0"/>
    <trip id="veh159" type="veh_passenger" depart="348.27" departLane="best" from="72157174#0" to="-292429056#5"/>
    <trip id="veh160" type="veh_passenger" depart="350.46" departLane="best" from="77348147" to="-437325054#2"/>
    <trip id="veh161" type="veh_passenger" depart="352.65" departLane="best" from="753730627#0" to="-713577963"/>
    <trip id="veh162" type="veh_passenger" depart="354.84" departLane="best" departSpeed="max" from="-24992424#5" to="202156991#0"/>
    <trip id="veh163" type="veh_passenger" depart="357.03" departLane="best" from="43230886" to="100405009#0"/>
    <trip id="veh164" type="veh_passenger" depart="359.22" departLane="best" from="30720544#0" to="24243092#0"/>
    <trip id="veh165" type="veh_passenger" depart="361.41" departLane="best" departSpeed="max" from="158023913#0" to="289830064"/>
    <trip id="veh166" type="veh_passenger" depart="363.60" departLane="best" departSpeed="max" from="-4613293#1" to="437325047#5"/>
    <trip id="veh168" type="veh_passenger" depart="367.98" departLane="best" departSpeed="max" from="44427220#0" to="369223458#0"/>
    <trip id="veh169" type="veh_passenger" depart="370.17" departLane="best" departSpeed="max" from="122820534#0" to="-22972473#3"/>
    <trip id="veh170" type="veh_passenger" depart="372.36" departLane="best" departSpeed="max" from="342968607#0" to="112128418#0"/>
    <trip id="veh171" type="veh_passenger" depart="374.55" departLane="best" from="-73310499#1" to="47755711#0"/>
    <trip id="veh172" type="veh_passenger" depart="376.74" departLane="best" from="42103020#0" to="-840229277"/>
    <trip id="veh173" type="veh_passenger" depart="378.94" departLane="best" from="-66071366#3" to="188386313#0"/>
    <trip id="veh174" type="veh_passenger" depart="381.13" departLane="best" from="169195795#0" to="-840229275"/>
    <trip id="veh175" type="veh_passenger" depart="383.32" departLane="best" departSpeed="max" from="-25302636#3" to="19002403#0"/>
    <trip id="veh176" type="veh_passenger" depart="385.51" departLane="best" from="72157174#0" to="369223460#0"/>
    <trip id="veh178" type="veh_passenger" depart="389.89" departLane="best" from="-560370523" to="24997595#0"/>
    <trip id="veh179" type="veh_passenger" depart="392.08" departLane="best" departSpeed="max" from="-111251382#2" to="-77348147"/>
    <trip id="veh180" type="veh_passenger" depart="394.27" departLane="best" from="195401006" to="289966097"/>
    <trip id="veh181" type="veh_passenger" depart="396.46" departLane="best" from="340498976#3" to="22972473#0"/>
    <trip id="veh182" type="veh_passenger" depart="398.65" departLane="best" departSpeed="max" from="19801533" to="-4611713#0"/>
    <trip id="veh183" type="veh_passenger" depart="400.84" departLane="best" from="22972473#0" to="544327500"/>
    <trip id="veh184" type="veh_passenger" depart="403.03" departLane="best" from="4611706#0" to="-43159545#1"/>
    <trip id="veh185" type="veh_passenger" depart="405.22" departLane="best" from="-24241762#2" to="243854725#0"/>
    <trip id="veh186" type="veh_passenger" depart="407.41" departLane="best" departSpeed="max" from="312651888#0" to="112128419#0"/>
    <trip id="veh191" type="veh_passenger" depart="418.36" departLane="best" from="461526153" to="-23017852#3"/>
    <trip id="veh192" type="veh_passenger" depart="420.55" departLane="best" from="171826985#0" to="340498982#3"/>
    <trip id="veh193" type="veh_passenger" depart="422.74" departLane="best" from="-4396823#0" to="427637455"/>
    <trip id="veh194" type="veh_passenger" depart="424.93" departLane="best" from="23851930" to="-4773029#2"/>
    <trip id="veh195" type="veh_passenger" depart="427.12" departLane="best" from="340498982#0" to="-112128825#0"/>
    <trip id="veh196" type="veh_passenger" depart="429.31" departLane="best" departSpeed="max" from="4588219#0" to="4611714#10"/>
    <trip id="veh197" type="veh_passenger" depart="431.50" departLane="best" departSpeed="max" from="-24992424#5" to="194962375#0"/>
    <trip id="veh198" type="veh_passenger" depart="433.69" departLane="best" departSpeed="max" from="-427637455" to="755340907"/>
    <trip id="veh199" type="veh_passenger" depart="435.88" departLane="best" from="-4612968#4" to="47755711#0"/>
    <trip id="veh200" type="veh_passenger" depart="438.08" departLane="best" from="202157002#0" to="4613293#1"/>
    <trip id="veh201" type="veh_passenger" depart="440.27" departLane="best" departSpeed="max" from="342968607#0" to="83517332#0"/>
    <trip id="veh203" type="veh_passenger" depart="444.65" departLane="best" from="541295978#0" to="328426208#0"/>
    <trip id="veh204" type="veh_passenger" depart="446.84" departLane="best" from="42103020#0" to="24241762#4"/>
    <trip id="veh205" type="veh_passenger" depart="449.03" departLane="best" departSpeed="max" from="4612970#0" to="24997595#0"/>
    <trip id="veh206" type="veh_passenger" depart="451.22" departLane="best" from="22972473#3" to="-6228081"/>
    <trip id="veh208" type="veh_passenger" depart="455.60" departLane="best" from="4610355#0" to="24913523#0"/>
    <trip id="veh209" type="veh_passenger" depart="457.79" departLane="best" from="-23755961#1" to="-755551646#1"/>
    <trip id="veh210" type="veh_passenger" depart="459.98" departLane="best" departSpeed="max" from="-47755711#2" to="100405009#0"/>
    <trip id="veh211" type="veh_passenger" depart="462.17" departLane="best" from="24915070#0" to="-312651888#0"/>
    <trip id="veh212" type="veh_passenger" depart="464.36" departLane="best" from="-4611713#1" to="427637455"/>
    <trip id="veh214" type="veh_passenger" depart="468.74" departLane="best" from="169195795#7" to="24992424#3"/>
    <trip id="veh215" type="veh_passenger" depart="470.93" departLane="best" from="173296880" to="-4611706#1"/>
    <trip id="veh216" type="veh_passenger" depart="473.12" departLane="best" from="19002363#0" to="54781811#0"/>
    <trip id="veh217" type="veh_passenger" depart="475.31" departLane="best" departSpeed="max" from="301167584#0" to="427637455"/>
    <trip id="veh218" type="veh_passenger" depart="477.50" departLane="best" from="4773463#1" to="4611714#0"/>
    <trip id="veh219" type="veh_passenger" depart="479.69" departLane="best" from="156364570#1" to="-112128825#0"/>
    <trip id="veh220" type="veh_passenger" depart="481.88" departLane="best" departSpeed="max" from="112128825#0" to="4611708#0"/>
    <trip id="veh221" type="veh_passenger" depart="484.07" departLane="best" from="47707171#0" to="751595930"/>
    <trip id="veh222" type="veh_passenger" depart="486.26" departLane="best" from="19002357#0" to="4611693#2"/>
    <trip id="veh223" type="veh_passenger" depart="488.45" departLane="best" from="24992428" to="312651888#2"/>
    <trip id="veh225" type="veh_passenger" depart="492.83" departLane="best" departSpeed="max" from="-874528353#4" to="370359204#0"/>
    <trip id="veh226" type="veh_passenger" depart="495.02" departLane="best" from="169195795#2" to="-371927739"/>
    <trip id="veh228" type="veh_passenger" depart="499.41" departLane="best" departSpeed="max" from="309147331#0" to="-158023913#5"/>
    <trip id="veh229" type="veh_passenger" depart="501.60" departLane="best" from="-15977422#1" to="344594961"/>
    <trip id="veh230" type="veh_passenger" depart="503.79" departLane="best" from="-30705211#6" to="22972470#0"/>
    <trip id="veh232" type="veh_passenger" depart="508.17" departLane="best" departSpeed="max" from="-4610608" to="111251382#0"/>
    <trip id="veh233" type="veh_passenger" depart="510.36" departLane="best" departSpeed="max" from="4610354" to="165415454#0"/>
    <trip id="veh234" type="veh_passenger" depart="512.55" departLane="best" departSpeed="max" from="4588219#0" to="465376256#0"/>
    <trip id="veh236" type="veh_passenger" depart="516.93" departLane="best" from="-156364570#0" to="24992424#3"/>
    <trip id="veh237" type="veh_passenger" depart="519.12" departLane="best" from="882389497" to="120359703"/>
    <trip id="veh238" type="veh_passenger" depart="521.31" departLane="best" from="330840125#0" to="4611708#2"/>
    <trip id="veh239" type="veh_passenger" depart="523.50" departLane="best" departSpeed="max" from="750204886" to="-4610610#0"/>
    <trip id="veh240" type="veh_passenger" depart="525.69" departLane="best" from="-156364570#0" to="-35557161#4"/>
    <trip id="veh241" type="veh_passenger" depart="527.88" departLane="best" departSpeed="max" from="-25302636#3" to="36892597#3"/>
    <trip id="veh242" type="veh_passenger" depart="530.07" departLane="best" from="289966281" to="-4611714#9"/>
    <trip id="veh243" type="veh_passenger" depart="532.26" departLane="best" departSpeed="max" from="371927739" to="4611714#10"/>
    <trip id="veh244" type="veh_passenger" depart="534.45" departLane="best" from="-36892597#2" to="328426193#0"/>
    <trip id="veh245" type="veh_passenger" depart="536.64" departLane="best" departSpeed="max" from="454285423#0" to="-292429056#5"/>
    <trip id="veh247" type="veh_passenger" depart="541.02" departLane="best" departSpeed="max" from="-24992424#5" to="-158023913#5"/>
    <trip id="veh248" type="veh_passenger" depart="543.21" departLane="best" from="751595930" to="169999355#0"/>
    <trip id="veh249" type="veh_passenger" depart="545.40" departLane="best" departSpeed="max" from="389705411#0" to="-23755950#4"/>
    <trip id="veh250" type="veh_passenger" depart="547.59" departLane="best" from="369223458#0" to="340498982#0"/>
    <trip id="veh252" type="veh_passenger" depart="551.97" departLane="best" departSpeed="max" from="-25294729#1" to="82658674#2"/>
    <trip id="veh253" type="veh_passenger" depart="554.17" departLane="best" from="194962375#0" to="156364570#1"/>
    <trip id="veh254" type="veh_passenger" depart="556.36" departLane="best" from="24242882#0" to="120359703"/>
    <trip id="veh255" type="veh_passenger" depart="558.55" departLane="best" from="461526153" to="46140376#0"/>
    <trip id="veh256" type="veh_passenger" depart="560.74" departLane="best" departSpeed="max" from="-24992424#5" to="755551647"/>
    <trip id="veh258" type="veh_passenger" depart="565.12" departLane="best" from="38208961" to="202156994#0"/>
    <trip id="veh260" type="veh_passenger" depart="569.50" departLane="best" departSpeed="max" from="-47755711#2" to="4613295#2"/>
    <trip id="veh261" type="veh_passenger" depart="571.69" departLane="best" from="24914141#5" to="23813206#0"/>
    <trip id="veh263" type="veh_passenger" depart="576.07" departLane="best" from="-474362271" to="4790825#0"/>
    <trip id="veh264" type="veh_passenger" depart="578.26" departLane="best" departSpeed="max" from="4612973#0" to="-24241762#3"/>
    <trip id="veh265" type="veh_passenger" depart="580.45" departLane="best" from="493008124#0" to="-4773029#2"/>
    <trip id="veh267" type="veh_passenger" depart="584.83" departLane="best" from="156364570#0" to="-158023913#5"/>
    <trip id="veh268" type="veh_passenger" depart="587.02" departLane="best" from="-4610610#1" to="4613293#1"/>
    <trip id="veh269" type="veh_passenger" depart="589.21" departLane="best" from="-882389497" to="51167934#0"/>
    <trip id="veh270" type="veh_passenger" depart="591.40" departLane="best" departSpeed="max" from="371927739" to="-751595929#2"/>
    <trip id="veh271" type="veh_passenger" depart="593.59" departLane="best" from="-11483007#2" to="734578686"/>
    <trip id="veh273" type="veh_passenger" depart="597.97" departLane="best" from="23851917#0" to="4611712"/>
    <trip id="veh274" type="veh_passenger" depart="600.16" departLane="best" from="369223458#0" to="34848160#0"/>
    <trip id="veh275" type="veh_passenger" depart="602.35" departLane="best" from="23851919" to="4612981#0"/>
    <trip id="veh277" type="veh_passenger" depart="606.73" departLane="best" from="369223458#1" to="-882389497"/>
    <trip id="veh278" type="veh_passenger" depart="608.92" departLane="best" departSpeed="max" from="301167584#0" to="237209664"/>
    <trip id="veh279" type="veh_passenger" depart="611.11" departLane="best" departSpeed="max" from="24914141#0" to="195401006"/>
    <trip id="veh280" type="veh_passenger" depart="613.31" departLane="best" departSpeed="max" from="454285423#0" to="112128418#0"/>
    <trip id="veh281" type="veh_passenger" depart="615.50" departLane="best" departSpeed="max" from="371927739" to="-750204886"/>