<?xml version="1.0" encoding="UTF-8"?>

<!-- generated on Sun Dec 20 00:16:50 2020 by Eclipse SUMO polyconvert Version v1_6_0+1927-b00c2fec16
<configuration xmlns:xsi="http://www.w3.org/2001/XMLSchema-instance" xsi:noNamespaceSchemaLocation="http://sumo.dlr.de/xsd/polyconvertConfiguration.xsd">

    <input>
        <net-file value="osm.net.xml"/>
        <osm-files value="osm_bbox.osm.xml"/>
        <osm.keep-full-type value="true"/>
        <type-file value="/home/tianyushi/sumo/data/typemap/osmPolyconvert.typ.xml"/>
    </input>

    <output>
        <output-file value="osm.poly.xml"/>
    </output>

    <processing>
        <poi-layer-offset value="5"/>
    </processing>

    <report>
        <verbose value="true"/>
    </report>

</configuration>
-->

<additional xmlns:xsi="http://www.w3.org/2001/XMLSchema-instance" xsi:noNamespaceSchemaLocation="http://sumo.dlr.de/xsd/additional_file.xsd">
    <location netOffset="-390441.18,-5819078.49" convBoundary="-1452.93,-3697.64,4842.53,4180.70" origBoundary="13.365448,52.477280,13.456601,52.548335" projParameter="+proj=utm +zone=33 +ellps=WGS84 +datum=WGS84 +units=m +no_defs"/>

    <poly id="100575040" type="leisure.park" color="207,245,201" fill="1" layer="-2.00" shape="902.486766,1543.348669 901.593400,1543.157068 895.588861,1541.721317 889.637356,1540.228758 896.674440,1513.566577 904.737805,1484.823026 881.777144,1479.034315 883.656242,1467.063791 875.006132,1465.697904 869.780830,1467.572048 865.053612,1470.481139 867.679575,1476.565304 859.732986,1479.679392 853.476074,1482.166218 851.126025,1476.587806 840.873460,1481.611433 842.442669,1483.201228 842.004357,1485.469869 839.975135,1486.394005 839.375391,1489.645463 833.094096,1487.670676 833.362952,1486.329390 821.734850,1489.313860 813.043663,1491.598860 812.284531,1493.173588 808.648036,1494.155687 806.608034,1493.065974 802.690260,1479.855459 803.350140,1479.618251 802.514890,1476.543319 800.878969,1471.950555 789.491197,1477.199802 776.920851,1482.987218 773.772569,1484.559390 771.401536,1487.816825 774.659969,1493.341638 769.367545,1496.163232 769.994783,1497.206423 767.388732,1505.465392 764.916997,1513.354167 762.843491,1519.921034 758.871062,1518.306767 754.448734,1521.186939 772.322656,1538.137805 777.974730,1539.592365 785.873987,1541.686925 792.733948,1543.437371 798.502074,1544.922759 803.499428,1546.236102 809.281362,1547.732323 825.726248,1551.996224 842.378685,1556.133167 859.181322,1560.311342 865.106173,1561.826710 870.430346,1563.188504 876.170793,1564.652341 882.798557,1566.341299 887.836567,1567.653824 894.367868,1569.278172 895.432798,1569.554986 897.290848,1562.447707 902.486766,1543.348669"/>
    <poly id="100575042" type="building.residential" color="255,230,230" fill="1" layer="-1.00" shape="870.560262,1586.776204 876.170793,1564.652341 870.430346,1563.188504 869.815158,1565.438814 870.259559,1565.584736 868.882306,1571.112358 869.309199,1571.692647 868.608390,1572.531647 867.309602,1572.115371 867.447488,1571.600440 863.658556,1570.605164 863.519319,1571.364934 861.785382,1570.913809 861.592827,1569.883213 862.487906,1569.540642 863.758588,1564.104406 864.475575,1564.299915 865.106173,1561.826710 859.181322,1560.311342 857.060759,1568.737525 853.644494,1582.389080 870.560262,1586.776204"/>
    <poly id="100950874" type="building.commercial" color="255,230,230" fill="1" layer="-1.00" shape="1207.141041,1250.440460 1187.811240,1241.899334 1183.666371,1231.575624 1195.399327,1211.208409 1208.754252,1218.435171 1207.141041,1250.440460"/>
    <poly id="100950876" type="building.commercial" color="255,230,230" fill="1" layer="-1.00" shape="1245.478570,1192.207352 1234.325332,1210.870218 1231.910022,1214.907325 1232.477971,1258.993434 1232.546465,1264.544591 1233.915520,1268.442349 1235.871247,1271.859772 1238.508481,1275.095206 1243.503956,1279.079668 1246.681180,1280.645151 1266.493318,1288.296755 1298.318451,1220.693994 1245.478570,1192.207352"/>
    <poly id="100950877" type="building.commercial" color="255,230,230" fill="1" layer="-1.00" shape="1277.328103,1227.300499 1257.633627,1269.175175 1251.381735,1266.998902 1248.705302,1265.366701 1247.101583,1262.520124 1246.050629,1257.046335 1247.759909,1225.383899 1273.160749,1225.467572 1277.328103,1227.300499"/>
    <poly id="100950878" type="building.commercial" color="255,230,230" fill="1" layer="-1.00" shape="1216.113269,1268.502344 1221.434207,1254.675424 1222.852733,1222.763471 1222.773155,1218.859444 1221.230572,1214.175468 1218.743956,1210.079884 1214.791305,1206.294925 1210.841743,1204.490614 1189.351688,1193.115223 1170.097291,1227.246846 1168.324102,1233.306126 1168.458157,1239.056130 1170.149703,1245.561721 1177.004201,1253.188209 1216.113269,1268.502344"/>
    <poly id="101309884" type="landuse.commercial" color="209,209,204" fill="1" layer="-3.00" shape="1895.393322,1570.311368 1844.461286,1598.593859 1843.597021,1599.414055 1843.389063,1600.141921 1843.724912,1601.525478 1875.070008,1669.548697 1893.485920,1709.814936 1974.523293,1747.313945 2015.024626,1726.517020 2016.262776,1722.016552 1953.872229,1644.214765 1906.829026,1586.962691 1895.393322,1570.311368"/>
    <poly id="102864701" type="building.residential" color="255,230,230" fill="1" layer="-1.00" shape="1386.623820,1607.807682 1377.442697,1595.903694 1377.191112,1595.575424 1379.773899,1593.593289 1380.025484,1593.921559 1380.572903,1593.508871 1380.334885,1593.180302 1382.904107,1591.198468 1383.155692,1591.526738 1383.683251,1591.136745 1383.431420,1590.797353 1386.000645,1588.815520 1386.266289,1589.165735 1386.820246,1588.741776 1386.554602,1588.391562 1389.130859,1586.420704 1389.396502,1586.770918 1391.232543,1585.395048 1400.112068,1597.472637 1392.650728,1603.201250 1392.504339,1603.026443 1390.856038,1604.298017 1390.988613,1604.462002 1388.806216,1606.134842 1386.623820,1607.807682"/>
    <poly id="102864702" type="building.residential" color="255,230,230" fill="1" layer="-1.00" shape="1380.656816,1634.478817 1387.030783,1629.608775 1378.554017,1618.557177 1377.779888,1619.152915 1375.405124,1616.111911 1375.759007,1615.848158 1375.912426,1616.033937 1377.787679,1614.590430 1377.668671,1614.426145 1379.316720,1613.143444 1379.463355,1613.329373 1386.623820,1607.807682 1377.442697,1595.903694 1361.144020,1608.359508 1380.656816,1634.478817"/>
    <poly id="104786904" type="natural.grassland" color="140,196,107" fill="1" layer="-4.00" shape="567.437685,888.788625 572.774925,826.944815 553.378166,825.284473 548.034382,887.128459 567.437685,888.788625"/>
    <poly id="104786906" type="building.yes" color="255,230,230" fill="1" layer="-1.00" shape="581.629372,993.328626 644.953616,1004.917064 637.948968,1015.009827 634.261052,1019.798840 629.787803,1025.595684 627.881254,1028.075043 613.782716,1027.153478 602.403173,1026.405143 603.003936,1019.236702 624.511131,1020.905908 625.841583,1013.888156 585.982808,1007.163569 584.465980,1008.243319 582.616913,1017.576047 583.647751,1018.754895 583.446135,1019.760870 582.599699,1020.158044 582.378480,1024.858833 578.891341,1024.635982 575.587384,1024.409057 575.988632,1022.308130 579.847303,1002.926927 581.456148,992.865119 581.629372,993.328626"/>
    <poly id="104786907" type="building.residential" color="255,230,230" fill="1" layer="-1.00" shape="610.402308,974.973263 609.127129,987.831803 569.437191,980.469311 572.535836,948.285970 586.163896,949.407062 587.359904,935.737959 600.667631,936.799455 599.530341,949.143058 591.712541,948.315502 590.427831,961.964322 598.323314,962.623232 597.862180,967.830101 597.397519,973.793728 610.402308,974.973263"/>
    <poly id="104786910" type="building.yes" color="255,230,230" fill="1" layer="-1.00" shape="688.115663,1001.765247 700.787105,985.203849 684.691510,972.620191 685.397433,971.703159 684.616929,971.097362 687.691272,967.100964 688.402447,967.641537 689.345942,966.418779 693.302986,969.457684 694.061706,968.472715 710.843162,981.374989 718.102771,972.055606 728.156549,975.148222 707.986364,1001.267928 700.498261,1010.993002 688.115663,1001.765247"/>
    <poly id="104786915" type="building.yes" color="255,230,230" fill="1" layer="-1.00" shape="685.628238,994.910280 672.100559,992.495878 670.983646,998.741060 684.486149,1001.245039 685.628238,994.910280"/>
    <poly id="104786916" type="building.yes" color="255,230,230" fill="1" layer="-1.00" shape="713.921704,927.170628 709.081520,944.258969 747.162191,955.263699 751.963125,941.292009 749.297959,940.182818 746.743661,938.258849 744.041447,936.093359 740.341664,934.550928 726.030964,930.506881 713.921704,927.170628"/>
    <poly id="104991245" type="building.yes" color="255,230,230" fill="1" layer="-1.00" shape="593.054732,1310.345900 605.857457,1306.144106 607.721383,1311.822248 608.159381,1311.678972 613.590748,1328.216227 614.419748,1327.952976 618.562213,1340.557467 617.693005,1340.843867 623.132086,1357.425471 609.399472,1361.926104 606.610887,1353.430983 606.018097,1353.633342 603.105760,1344.762636 603.698551,1344.560277 600.101482,1333.590554 599.555683,1333.769613 596.679472,1324.998256 597.292618,1324.795443 595.865676,1320.454026 594.504243,1316.311451 594.955561,1316.156749 593.054732,1310.345900"/>
    <poly id="104991246" type="building.yes" color="255,230,230" fill="1" layer="-1.00" shape="496.219163,1354.297071 494.936640,1350.653507 510.156434,1345.273731 511.450534,1348.828019 496.219163,1354.297071"/>
    <poly id="105187865" type="building.office" color="255,230,230" fill="1" layer="-1.00" shape="106.161677,874.271798 204.580463,881.776692 203.370748,893.265206 197.510158,949.090078 195.546774,970.599207 193.572079,992.208739 55.833420,980.787093 45.686941,979.945708 9.766162,976.965640 16.816095,900.360722 52.182147,903.097327 51.443949,911.370576 26.330159,909.339410 24.234713,934.623872 49.246357,936.646179 48.718171,943.078665 48.290294,948.229223 26.360357,946.505215 24.268986,971.667184 46.153061,973.470098 47.088189,962.165712 57.589245,963.077068 56.629014,974.170586 72.099028,975.393729 73.219784,961.459067 84.325161,962.379225 84.757372,957.117297 106.770884,958.939845 105.968446,968.594352 169.852556,973.865926 174.079168,923.007061 184.953181,923.899234 186.066341,910.521164 136.415089,906.422453 137.335062,895.340986 122.611883,894.134325 120.541653,919.050951 102.567760,917.572032 105.381384,883.703254 106.161677,874.271798"/>
    <poly id="105187865#1" type="landuse.commercial" color="209,209,204" fill="1" layer="-3.00" shape="106.161677,874.271798 204.580463,881.776692 203.370748,893.265206 197.510158,949.090078 195.546774,970.599207 193.572079,992.208739 55.833420,980.787093 45.686941,979.945708 9.766162,976.965640 16.816095,900.360722 52.182147,903.097327 51.443949,911.370576 26.330159,909.339410 24.234713,934.623872 49.246357,936.646179 48.718171,943.078665 48.290294,948.229223 26.360357,946.505215 24.268986,971.667184 46.153061,973.470098 47.088189,962.165712 57.589245,963.077068 56.629014,974.170586 72.099028,975.393729 73.219784,961.459067 84.325161,962.379225 84.757372,957.117297 106.770884,958.939845 105.968446,968.594352 169.852556,973.865926 174.079168,923.007061 184.953181,923.899234 186.066341,910.521164 136.415089,906.422453 137.335062,895.340986 122.611883,894.134325 120.541653,919.050951 102.567760,917.572032 105.381384,883.703254 106.161677,874.271798"/>
    <poly id="105210540" type="building.residential" color="255,230,230" fill="1" layer="-1.00" shape="1311.845640,1753.373472 1323.357978,1747.933511 1316.701032,1734.160041 1307.322032,1739.397065 1311.845640,1753.373472"/>
    <poly id="105210553" type="leisure.pitch" color="207,245,201" fill="1" layer="-2.00" shape="1272.502632,1777.622516 1266.625551,1759.837053 1293.940373,1750.842791 1299.824146,1768.628137 1272.502632,1777.622516"/>
    <poly id="105210553#1" type="sport.soccer;basketball" color="79,230,125" fill="1" layer="-2.00" shape="1272.502632,1777.622516 1266.625551,1759.837053 1293.940373,1750.842791 1299.824146,1768.628137 1272.502632,1777.622516"/>
    <poly id="105210556" type="building.residential" color="255,230,230" fill="1" layer="-1.00" shape="1233.668898,1711.370916 1239.864849,1711.656693 1246.847409,1712.525968 1242.426515,1734.189065 1237.289259,1759.362086 1231.109233,1782.800023 1219.863474,1819.603042 1202.313153,1815.929832 1207.051561,1800.346463 1209.346053,1800.985600 1210.526413,1797.587813 1213.254169,1798.484427 1215.738753,1791.151991 1210.814911,1789.769847 1217.480502,1766.810750 1219.432882,1767.323931 1220.312078,1763.810408 1222.556148,1764.317135 1224.555586,1756.528080 1218.395886,1755.117634 1220.347762,1746.406038 1222.591874,1732.190938 1226.943771,1732.873583 1227.540919,1729.188260 1230.039578,1729.544700 1231.656813,1721.964402 1233.668898,1711.370916"/>
    <poly id="105210562" type="building.residential" color="255,230,230" fill="1" layer="-1.00" shape="1235.649624,1690.462833 1238.444785,1697.778599 1235.464828,1697.755503 1227.951583,1698.055256 1222.146546,1701.021233 1220.579103,1697.661994 1235.649624,1690.462833"/>
    <poly id="105210571" type="building.residential" color="255,230,230" fill="1" layer="-1.00" shape="1238.444785,1697.778599 1235.649624,1690.462833 1248.992305,1684.002978 1250.390040,1684.906779 1251.268039,1685.632908 1249.030917,1698.634926 1238.444785,1697.778599"/>
    <poly id="105210581" type="building.residential" color="255,230,230" fill="1" layer="-1.00" shape="1324.902839,1746.897877 1323.898412,1743.214589 1323.909398,1739.720280 1329.770626,1735.918612 1330.814405,1736.162602 1332.027225,1735.457011 1327.627278,1727.687054 1338.517030,1721.404068 1345.318492,1733.427339 1343.747225,1734.496932 1324.902839,1746.897877"/>
    <poly id="105210597" type="building.residential" color="255,230,230" fill="1" layer="-1.00" shape="1303.821573,1630.490731 1341.311924,1599.739909 1332.465791,1591.022217 1308.244981,1610.151834 1304.780887,1606.344886 1299.177211,1611.364920 1297.654205,1609.707198 1291.754805,1614.244165 1292.524373,1615.284271 1296.064381,1620.068762 1303.821573,1630.490731"/>
    <poly id="105210608" type="building.residential" color="255,230,230" fill="1" layer="-1.00" shape="1233.668898,1711.370916 1239.864849,1711.656693 1246.847409,1712.525968 1248.343910,1703.167930 1249.030917,1698.634926 1238.444785,1697.778599 1235.464828,1697.755503 1235.617629,1704.662367 1234.934177,1705.367398 1234.828737,1707.350445 1233.385422,1707.760715 1232.070424,1705.074671 1230.665735,1705.083493 1230.441418,1704.454182 1229.650481,1703.982066 1228.507644,1703.862692 1227.883556,1703.876500 1227.203690,1704.436794 1227.216240,1705.004025 1217.605794,1704.994111 1217.289110,1711.232578 1229.005398,1711.329432 1233.668898,1711.370916"/>
    <poly id="105210610" type="building.residential" color="255,230,230" fill="1" layer="-1.00" shape="1272.169668,1636.131267 1277.048832,1651.446224 1303.821573,1630.490731 1296.064381,1620.068762 1284.585130,1628.245435 1272.169668,1636.131267"/>
    <poly id="105210629" type="building.residential" color="255,230,230" fill="1" layer="-1.00" shape="1335.923077,1775.997767 1331.725681,1766.643212 1335.765329,1764.562081 1335.043177,1763.209348 1341.958528,1759.506798 1342.673650,1760.848560 1344.799924,1759.711061 1344.091586,1758.369149 1355.393705,1752.321892 1356.205022,1753.717168 1358.311689,1752.613492 1357.553412,1751.161406 1364.369748,1747.583480 1365.100889,1749.036167 1367.302038,1747.908152 1366.503553,1746.479208 1371.543899,1743.919765 1377.224751,1754.376591 1335.923077,1775.997767"/>
    <poly id="105678678" type="tourism.attraction" color="207,245,201" fill="1" layer="-2.00" shape="1058.471215,1677.015528 1062.342356,1674.681970 1066.791599,1671.790352 1073.476422,1682.191223 1071.621515,1683.322827 1076.829144,1691.686693 1076.118462,1692.080778 1077.632753,1694.261625 1080.738691,1692.312245 1086.972901,1702.901157 1078.633679,1708.193483 1081.901381,1713.239793 1090.193590,1708.582788 1087.402845,1703.314482 1090.003824,1701.854783 1089.206336,1701.393962 1082.859026,1690.907701 1089.900991,1686.489820 1084.099033,1677.337918 1081.506595,1677.039267 1076.238867,1680.360727 1069.807390,1669.753943 1060.977385,1655.962176 1060.371072,1654.940742 1058.382457,1656.164335 1055.980405,1657.719791 1054.223914,1659.005007 1053.670227,1660.052146 1049.681773,1662.911309 1052.147975,1667.007259 1046.852498,1670.607556 1045.051925,1668.065851 1031.936724,1677.125090 1033.302173,1679.019905 1034.011128,1678.547959 1040.160001,1688.037072 1041.818983,1690.314850 1040.268608,1691.406335 1042.155391,1693.857106 1055.605178,1684.890628 1046.694128,1670.811363 1046.894679,1670.673387 1052.176342,1667.062268 1058.471215,1677.015528"/>
    <poly id="105733615" type="building.yes" color="255,230,230" fill="1" layer="-1.00" shape="217.802482,1377.275158 219.236913,1359.138391 232.157248,1359.918180 230.452163,1379.006836 217.802482,1377.275158"/>
    <poly id="105733616" type="building.residential" color="255,230,230" fill="1" layer="-1.00" shape="164.182976,1375.501602 163.987871,1378.009690 163.793014,1380.528900 162.298043,1380.451020 142.139727,1378.642475 133.067209,1377.832579 127.320035,1377.304474 125.490406,1377.133935 118.315103,1376.481968 110.938065,1372.574107 113.482495,1367.676693 113.956560,1367.933163 116.272472,1362.528985 122.523016,1365.838878 126.419723,1366.174649 147.711034,1367.957817 148.288973,1360.711908 148.888831,1353.231828 149.084427,1350.745983 150.281157,1350.841650 162.723838,1351.809971 164.649445,1352.022891 166.154439,1352.245208 165.931946,1354.742780 165.709951,1357.262596 164.220762,1357.140076 163.959155,1360.317310 163.873965,1361.365216 162.714394,1375.389749 164.182976,1375.501602"/>
    <poly id="105733620" type="building.commercial" color="255,230,230" fill="1" layer="-1.00" shape="160.229451,1405.434379 130.961042,1402.950328 133.067209,1377.832579 142.139727,1378.642475 162.298043,1380.451020 161.260476,1392.948336 160.229451,1405.434379"/>
    <poly id="105733622" type="building.yes" color="255,230,230" fill="1" layer="-1.00" shape="223.079473,1391.400766 238.577984,1392.746155 239.553034,1379.871917 232.868937,1379.331221 232.619853,1381.551191 230.275469,1381.125040 230.452163,1379.006836 217.802482,1377.275158 216.926257,1389.101194 215.468202,1390.068476 217.565244,1392.792444 222.906915,1393.096027 223.079473,1391.400766"/>
    <poly id="105733628" type="building.residential" color="255,230,230" fill="1" layer="-1.00" shape="158.330590,1427.988113 129.069594,1425.526167 130.635201,1406.896811 130.961042,1402.950328 160.229451,1405.434379 160.121849,1406.694212 160.971836,1406.764244 160.707005,1409.796891 159.863802,1409.726707 159.279893,1416.705685 158.684407,1423.773942 159.527607,1423.844126 159.263027,1426.887896 158.426611,1426.817560 158.330590,1427.988113"/>
    <poly id="105733634" type="building.hotel" color="255,230,230" fill="1" layer="-1.00" shape="252.884342,1323.958188 247.503713,1323.432886 245.789150,1347.573711 233.254814,1346.451438 223.164398,1345.652972 201.206372,1344.106915 199.580803,1341.828659 202.344723,1308.762231 204.309283,1307.071463 244.224002,1310.297542 254.195350,1311.232244 254.091359,1312.046886 252.884342,1323.958188"/>
    <poly id="105733636" type="building.yes" color="255,230,230" fill="1" layer="-1.00" shape="128.549493,1431.713658 129.069594,1425.526167 158.330590,1427.988113 157.959329,1432.636653 157.588069,1437.285193 156.160903,1438.418719 145.521850,1435.841118 128.549493,1431.713658"/>
    <poly id="105733641" type="building.yes" color="255,230,230" fill="1" layer="-1.00" shape="274.253778,1313.421829 269.224095,1313.111225 254.091359,1312.046886 252.884342,1323.958188 252.781673,1324.527991 274.536900,1326.412637 275.475086,1315.531088 274.253778,1313.421829"/>
    <poly id="105733647" type="building.yes" color="255,230,230" fill="1" layer="-1.00" shape="256.522204,1394.192789 238.577984,1392.746155 239.553034,1379.871917 257.791993,1381.445510 256.522204,1394.192789"/>
    <poly id="105733649" type="building.office" color="255,230,230" fill="1" layer="-1.00" shape="140.765688,1277.656031 141.026120,1277.160594 141.417440,1276.751254 141.871558,1276.418405 142.382185,1276.184442 142.928970,1276.049820 143.491559,1276.014995 144.049850,1276.091543 144.583240,1276.268796 145.071377,1276.547210 155.559311,1286.928705 168.427828,1299.660623 168.639799,1300.034229 168.784674,1300.442717 168.862205,1300.874965 166.405863,1330.685265 165.102359,1346.471186 164.649445,1352.022891 162.723838,1351.809971 150.281157,1350.841650 149.084427,1350.745983 149.248116,1349.262344 129.186278,1338.716456 132.041148,1333.433775 118.736739,1324.584129 117.055566,1323.464421 116.848811,1323.324382 124.575955,1308.574424 140.765688,1277.656031"/>
    <poly id="105733655" type="building.yes" color="255,230,230" fill="1" layer="-1.00" shape="219.236913,1359.138391 220.055585,1348.381899 222.831433,1348.676007 223.164398,1345.652972 233.254814,1346.451438 232.157248,1359.918180 219.236913,1359.138391"/>
    <poly id="105733781" type="building.apartments" color="255,230,230" fill="1" layer="-1.00" shape="406.227381,1427.196516 406.661734,1433.284796 400.577609,1433.164481 400.819820,1427.283673 389.026993,1426.834396 389.496373,1413.181409 405.132685,1413.711929 406.227381,1427.196516"/>
    <poly id="105733782" type="building.apartments" color="255,230,230" fill="1" layer="-1.00" shape="389.026993,1426.834396 388.706860,1432.872729 386.697570,1432.861887 386.985319,1440.288755 387.017554,1441.734633 381.040990,1441.567434 381.220793,1431.670926 382.121820,1431.595199 382.633965,1429.603055 381.187123,1427.420907 370.739749,1427.041825 369.850026,1428.842092 370.007090,1431.320060 369.722411,1431.337535 369.737045,1441.430007 363.980541,1441.391453 364.598657,1429.237380 365.494749,1412.503637 389.496373,1413.181409 389.026993,1426.834396"/>
    <poly id="105733783" type="building.apartments" color="255,230,230" fill="1" layer="-1.00" shape="316.006820,1454.735285 327.351599,1456.095721 329.279469,1447.284109 332.680531,1447.920417 332.963737,1446.011267 329.704393,1445.338415 330.560529,1441.424632 319.731794,1440.074932 316.006820,1454.735285"/>
    <poly id="105733786" type="building.apartments" color="255,230,230" fill="1" layer="-1.00" shape="433.376604,1465.872086 431.987986,1429.448797 430.485170,1429.626948 430.411252,1428.137488 420.468380,1427.858334 420.591837,1430.047733 417.151378,1430.079903 418.531397,1461.239996 419.989195,1461.174122 420.225086,1466.276463 433.376604,1465.872086"/>
    <poly id="105733787" type="building.apartments" color="255,230,230" fill="1" layer="-1.00" shape="430.411252,1428.137488 431.179490,1414.488977 405.132685,1413.711929 406.227381,1427.196516 420.468380,1427.858334 430.411252,1428.137488"/>
    <poly id="105733788" type="amenity.theatre" color="237,199,199" fill="1" layer="-1.00" shape="319.590778,1495.516157 327.020552,1461.032665 332.927598,1461.735477 328.617130,1495.181269 319.590778,1495.516157"/>
    <poly id="105733788#1" type="building.apartments" color="255,230,230" fill="1" layer="-1.00" shape="319.590778,1495.516157 327.020552,1461.032665 332.927598,1461.735477 328.617130,1495.181269 319.590778,1495.516157"/>
    <poly id="105733789" type="amenity.theatre" color="237,199,199" fill="1" layer="-1.00" shape="341.348053,1457.664103 327.351599,1456.095721 316.006820,1454.735285 305.710792,1502.814001 335.309771,1501.285736 341.348053,1457.664103"/>
    <poly id="105733789#1" type="building.apartments" color="255,230,230" fill="1" layer="-1.00" shape="341.348053,1457.664103 327.351599,1456.095721 316.006820,1454.735285 305.710792,1502.814001 335.309771,1501.285736 341.348053,1457.664103"/>
    <poly id="105733790" type="building.dormitory" color="255,230,230" fill="1" layer="-1.00" shape="471.923727,1435.502648 476.670222,1449.006044 461.141647,1451.477369 453.372780,1452.507291 452.227876,1447.425203 462.679693,1444.655228 460.660693,1438.724654 471.923727,1435.502648"/>
    <poly id="105733791" type="building.apartments" color="255,230,230" fill="1" layer="-1.00" shape="462.829679,1493.123991 434.437267,1494.279637 433.905348,1481.984292 460.012158,1480.901823 462.829679,1493.123991"/>
    <poly id="105733792" type="building.apartments" color="255,230,230" fill="1" layer="-1.00" shape="458.069240,1429.034557 430.411252,1428.137488 431.179490,1414.488977 464.941554,1415.483742 471.923727,1435.502648 460.660693,1438.724654 458.069240,1429.034557"/>
    <poly id="105733793" type="building.apartments" color="255,230,230" fill="1" layer="-1.00" shape="481.495776,1462.707981 491.046632,1489.880418 489.397238,1492.009157 462.829679,1493.123991 460.012158,1480.901823 458.467080,1474.003712 465.517624,1473.635205 465.800702,1481.162327 476.503598,1481.135319 476.295267,1477.267533 473.068359,1471.041160 472.327085,1471.280227 470.571158,1466.189492 468.899292,1463.044225 481.495776,1462.707981"/>
    <poly id="105733794" type="building.apartments" color="255,230,230" fill="1" layer="-1.00" shape="433.905348,1481.984292 433.376604,1465.872086 420.225086,1466.276463 417.270773,1466.498097 417.631829,1478.129590 416.511133,1479.311846 388.348887,1480.139924 388.840638,1496.108295 434.437267,1494.279637 433.905348,1481.984292"/>
    <poly id="105733795" type="building.apartments" color="255,230,230" fill="1" layer="-1.00" shape="476.670222,1449.006044 481.495776,1462.707981 468.899292,1463.044225 462.204315,1463.226763 461.141647,1451.477369 476.670222,1449.006044"/>
    <poly id="105733796" type="building.yes" color="255,230,230" fill="1" layer="-1.00" shape="387.836569,1466.597843 387.017554,1441.734633 386.985319,1440.288755 394.202107,1440.372675 394.637357,1466.290441 387.836569,1466.597843"/>
    <poly id="105733797" type="building.apartments" color="255,230,230" fill="1" layer="-1.00" shape="319.731794,1440.074932 325.087781,1412.726034 327.984807,1410.847600 365.494749,1412.503637 364.598657,1429.237380 344.167204,1428.557999 343.892716,1434.205851 342.155507,1436.047280 341.467212,1440.791892 341.871100,1441.250246 341.589130,1443.215006 332.613488,1442.480479 332.807169,1441.730605 330.560529,1441.424632 319.731794,1440.074932"/>
    <poly id="106845276" type="building.yes" color="255,230,230" fill="1" layer="-1.00" shape="361.176223,1500.386140 335.309771,1501.285736 341.348053,1457.664103 363.123915,1458.981149 361.176223,1500.386140"/>
    <poly id="107822681" type="leisure.playground" color="207,245,201" fill="1" layer="-2.00" shape="1273.312396,1737.211402 1285.727313,1733.609701 1282.302699,1722.991804 1269.366125,1727.250451 1273.312396,1737.211402"/>
    <poly id="107860171" type="building.residential" color="255,230,230" fill="1" layer="-1.00" shape="1465.002697,1756.722093 1464.159122,1755.093833 1462.501034,1755.920497 1461.345970,1753.709352 1461.925422,1753.518518 1457.690867,1745.544504 1460.155612,1744.366201 1459.547675,1743.266864 1462.206688,1741.972998 1459.657566,1737.177646 1462.429446,1735.770013 1464.902965,1740.522524 1467.307399,1739.378940 1467.948761,1740.455285 1470.155246,1739.260433 1474.254269,1746.937005 1474.704345,1746.726773 1475.794269,1749.061762 1474.206867,1749.708821 1475.259928,1751.911092 1465.002697,1756.722093"/>
    <poly id="109089263" type="building.residential" color="255,230,230" fill="1" layer="-1.00" shape="956.346169,1418.036303 958.066789,1435.635427 959.807055,1435.452173 960.956835,1448.735312 960.294231,1448.850156 958.973694,1456.023377 964.604090,1457.111422 972.687615,1420.377922 972.179315,1419.799430 972.997721,1417.221929 970.670203,1417.551731 970.135137,1416.684514 956.346169,1418.036303"/>
    <poly id="109089264" type="building.residential" color="255,230,230" fill="1" layer="-1.00" shape="938.439520,1450.392010 944.077945,1450.311453 944.067337,1449.833200 949.455497,1449.791583 949.465364,1450.236469 954.792962,1450.218457 953.146833,1432.306107 951.899451,1431.454691 938.973567,1432.242134 937.615547,1433.440658 938.439520,1450.392010"/>
    <poly id="113589278" type="leisure.playground" color="207,245,201" fill="1" layer="-2.00" shape="795.361705,1523.015425 793.408665,1521.868148 792.721423,1518.734291 793.664884,1515.375043 795.820583,1512.812315 799.515835,1509.892692 803.522331,1508.457263 807.122936,1507.998955 809.894582,1508.415889 811.719867,1510.534114 812.362046,1512.556210 810.446508,1515.848021 807.983193,1518.617871 806.134721,1520.650772 803.375109,1522.303314 800.144812,1523.543462 797.454961,1523.447419 795.361705,1523.015425"/>
    <poly id="11548677" type="natural.water" color="181,209,209" fill="0" layer="-4.00" shape="1718.104310,233.064294 1688.224228,216.007116 1555.522724,146.167929 1547.203630,138.662205 1537.604785,131.618686 1534.900386,129.664232 1518.508145,117.807664 1476.697948,89.353168 1423.618394,62.794627 1411.960384,58.133584 1388.915728,48.805588 1381.903587,46.701524 1377.281809,45.546166 1361.711643,41.739433 1296.341273,33.869821 1230.016679,37.817403 1225.750288,38.612782 1223.218969,39.581219 1220.163720,41.418067 1217.215527,43.797801 1215.113501,45.758231 1213.520170,47.696284 1212.262689,49.471124 1193.827387,84.953003 1186.180947,99.599130 1072.232581,295.496464 1069.194699,300.560032 1066.698813,305.266643 1013.444792,411.468657 998.850052,452.864063 960.889676,548.779770 952.847216,565.093115 874.696850,716.470709 869.975184,753.619323 841.958416,859.352631 821.677532,914.472873 822.465941,916.046620 822.541725,918.237079 809.386732,939.337821 807.603972,939.143727 798.522460,955.380301 744.489363,994.748284 662.004645,1094.048642 651.030655,1107.256372 638.756812,1122.139930 626.635478,1136.552768 567.915139,1207.930066 570.578071,1210.163097 561.017460,1221.893000 558.321599,1219.705218 556.049060,1223.728372 550.658603,1226.118398"/>