<?xml version="1.0" encoding="UTF-8"?>

<!-- generated on Sun Dec 20 00:16:49 2020 by Eclipse SUMO netconvert Version v1_6_0+1927-b00c2fec16
<configuration xmlns:xsi="http://www.w3.org/2001/XMLSchema-instance" xsi:noNamespaceSchemaLocation="http://sumo.dlr.de/xsd/netconvertConfiguration.xsd">

    <input>
        <type-files value="/home/tianyushi/sumo/data/typemap/osmNetconvert.typ.xml,/home/tianyushi/sumo/data/typemap/osmNetconvertUrbanDe.typ.xml,/home/tianyushi/sumo/data/typemap/osmNetconvertPedestrians.typ.xml,/home/tianyushi/sumo/data/typemap/osmNetconvertBicycle.typ.xml"/>
        <osm-files value="osm_bbox.osm.xml"/>
    </input>

    <output>
        <output-file value="osm.net.xml"/>
        <output.street-names value="true"/>
        <output.original-names value="true"/>
    </output>

    <projection>
        <proj.utm value="true"/>
    </projection>

    <processing>
        <geometry.remove value="true"/>
        <roundabouts.guess value="true"/>
    </processing>

    <tls_building>
        <tls.discard-simple value="true"/>
        <tls.join value="true"/>
        <tls.guess-signals value="true"/>
        <tls.default-type value="actuated"/>
    </tls_building>

    <ramp_guessing>
        <ramps.guess value="true"/>
    </ramp_guessing>

    <edge_removal>
        <keep-edges.by-vclass value="passenger"/>
    </edge_removal>

    <junctions>
        <junctions.join value="true"/>
        <junctions.corner-detail value="5"/>
    </junctions>

    <pedestrian>
        <crossings.guess value="true"/>
    </pedestrian>

    <report>
        <verbose value="true"/>
        <aggregate-warnings value="5"/>
    </report>

</configuration>
-->

<net version="1.6" junctionCornerDetail="5" walkingareas="true" limitTurnSpeed="5.50" xmlns:xsi="http://www.w3.org/2001/XMLSchema-instance" xsi:noNamespaceSchemaLocation="http://sumo.dlr.de/xsd/net_file.xsd">

    <location netOffset="-390441.18,-5819078.49" convBoundary="0.00,0.00,2060.90,1908.88" origBoundary="13.372213,52.510812,13.417649,52.541230" projParameter="+proj=utm +zone=33 +ellps=WGS84 +datum=WGS84 +units=m +no_defs"/>

    <type id="cycleway.lane" allow="bicycle" bikeLaneWidth="1.00"/>
    <type id="cycleway.lane|highway.footway" priority="1" numLanes="1" speed="13.89" allow="pedestrian bicycle" oneway="1" width="3.20" bikeLaneWidth="1.00"/>
    <type id="cycleway.lane|highway.pedestrian" priority="1" numLanes="1" speed="13.89" allow="pedestrian bicycle" oneway="1" width="3.20" bikeLaneWidth="1.00"/>
    <type id="cycleway.lane|highway.primary" priority="12" numLanes="2" speed="13.89" disallow="pedestrian tram rail_urban rail rail_electric rail_fast ship" oneway="0" sidewalkWidth="3.00" bikeLaneWidth="1.00"/>
    <type id="cycleway.lane|highway.residential" priority="3" numLanes="1" speed="13.89" disallow="pedestrian tram rail_urban rail rail_electric rail_fast ship" oneway="0" sidewalkWidth="2.00" bikeLaneWidth="1.00"/>
    <type id="cycleway.lane|highway.secondary" priority="11" numLanes="1" speed="13.89" disallow="pedestrian tram rail_urban rail rail_electric rail_fast ship" oneway="0" sidewalkWidth="3.00" bikeLaneWidth="1.00"/>
    <type id="cycleway.lane|highway.secondary_link" priority="6" numLanes="1" speed="13.89" disallow="pedestrian tram rail_urban rail rail_electric rail_fast ship" oneway="0" sidewalkWidth="3.00" bikeLaneWidth="1.00"/>
    <type id="cycleway.lane|highway.tertiary" priority="10" numLanes="1" speed="13.89" disallow="pedestrian tram rail_urban rail rail_electric rail_fast ship" oneway="0" sidewalkWidth="3.00" bikeLaneWidth="1.00"/>
    <type id="cycleway.opposite_lane" allow="bicycle" bikeLaneWidth="1.00"/>
    <type id="cycleway.opposite_track" allow="bicycle" bikeLaneWidth="1.50"/>
    <type id="cycleway.track" allow="bicycle" bikeLaneWidth="1.50"/>
    <type id="cycleway.track|highway.primary" priority="12" numLanes="2" speed="13.89" disallow="pedestrian tram rail_urban rail rail_electric rail_fast ship" oneway="0" sidewalkWidth="3.00" bikeLaneWidth="1.50"/>
    <type id="cycleway.track|highway.tertiary" priority="10" numLanes="1" speed="13.89" disallow="pedestrian tram rail_urban rail rail_electric rail_fast ship" oneway="0" sidewalkWidth="3.00" bikeLaneWidth="1.50"/>
    <type id="highway.bridleway" priority="1" numLanes="1" speed="2.78" allow="pedestrian" oneway="1" width="2.00"/>
    <type id="highway.bus_guideway" priority="1" numLanes="1" speed="13.89" allow="bus" oneway="1"/>
    <type id="highway.cycleway" priority="1" numLanes="1" speed="8.33" allow="bicycle" oneway="0" width="1.00"/>
    <type id="highway.footway" priority="1" numLanes="1" speed="2.78" allow="pedestrian" oneway="1" width="2.00"/>
    <type id="highway.ford" priority="1" numLanes="1" speed="2.78" allow="army" oneway="0"/>
    <type id="highway.living_street" priority="2" numLanes="1" speed="2.78" disallow="tram rail_urban rail rail_electric rail_fast ship" oneway="0"/>
    <type id="highway.motorway" priority="14" numLanes="2" speed="27.78" allow="private emergency authority army vip passenger hov taxi bus coach delivery truck trailer motorcycle evehicle custom1 custom2" oneway="1"/>
    <type id="highway.motorway_link" priority="9" numLanes="1" speed="16.67" allow="private emergency authority army vip passenger hov taxi bus coach delivery truck trailer motorcycle evehicle custom1 custom2" oneway="1"/>
    <type id="highway.path" priority="1" numLanes="1" speed="2.78" allow="pedestrian bicycle" oneway="1" width="2.00"/>
    <type id="highway.pedestrian" priority="1" numLanes="1" speed="2.78" allow="pedestrian" oneway="1" width="2.00"/>
    <type id="highway.primary" priority="12" numLanes="2" speed="13.89" disallow="pedestrian tram rail_urban rail rail_electric rail_fast ship" oneway="0" sidewalkWidth="3.00"/>
    <type id="highway.primary_link" priority="7" numLanes="1" speed="13.89" disallow="pedestrian tram rail_urban rail rail_electric rail_fast ship" oneway="0" sidewalkWidth="3.00"/>
    <type id="highway.raceway" priority="15" numLanes="2" speed="83.33" allow="vip" oneway="0"/>
    <type id="highway.residential" priority="3" numLanes="1" speed="13.89" disallow="pedestrian tram rail_urban rail rail_electric rail_fast ship" oneway="0" sidewalkWidth="2.00"/>
    <type id="highway.secondary" priority="11" numLanes="1" speed="13.89" disallow="pedestrian tram rail_urban rail rail_electric rail_fast ship" oneway="0" sidewalkWidth="3.00"/>
    <type id="highway.secondary_link" priority="6" numLanes="1" speed="13.89" disallow="pedestrian tram rail_urban rail rail_electric rail_fast ship" oneway="0" sidewalkWidth="3.00"/>
    <type id="highway.service" priority="1" numLanes="1" speed="5.56" allow="pedestrian delivery bicycle" oneway="0"/>
    <type id="highway.service|railway.tram" priority="17" numLanes="1" speed="13.89" allow="pedestrian delivery bicycle tram" oneway="0"/>
    <type id="highway.stairs" priority="1" numLanes="1" speed="1.39" allow="pedestrian" oneway="1" width="2.00"/>
    <type id="highway.step" priority="1" numLanes="1" speed="1.39" allow="pedestrian" oneway="1" width="2.00"/>
    <type id="highway.steps" priority="1" numLanes="1" speed="1.39" allow="pedestrian" oneway="1" width="2.00"/>
    <type id="highway.tertiary" priority="10" numLanes="1" speed="13.89" disallow="pedestrian tram rail_urban rail rail_electric rail_fast ship" oneway="0" sidewalkWidth="3.00"/>
    <type id="highway.tertiary_link" priority="5" numLanes="1" speed="13.89" disallow="pedestrian tram rail_urban rail rail_electric rail_fast ship" oneway="0" sidewalkWidth="2.00"/>
    <type id="highway.track" priority="1" numLanes="1" speed="5.56" allow="pedestrian motorcycle moped bicycle" oneway="0"/>
    <type id="highway.trunk" priority="13" numLanes="2" speed="13.89" disallow="pedestrian bicycle tram rail_urban rail rail_electric rail_fast ship" oneway="0"/>
    <type id="highway.trunk_link" priority="8" numLanes="1" speed="13.89" disallow="pedestrian bicycle tram rail_urban rail rail_electric rail_fast ship" oneway="0"/>
    <type id="highway.unclassified" priority="4" numLanes="1" speed="13.89" disallow="pedestrian tram rail_urban rail rail_electric rail_fast ship" oneway="0" sidewalkWidth="2.00"/>
    <type id="highway.unsurfaced" priority="1" numLanes="1" speed="8.33" disallow="tram rail_urban rail rail_electric rail_fast ship" oneway="0"/>
    <type id="railway.highspeed" priority="21" numLanes="1" speed="69.44" allow="rail_fast" oneway="1"/>
    <type id="railway.light_rail" priority="19" numLanes="1" speed="27.78" allow="rail_urban" oneway="1"/>
    <type id="railway.preserved" priority="16" numLanes="1" speed="27.78" allow="rail" oneway="1"/>
    <type id="railway.rail" priority="20" numLanes="1" speed="44.44" allow="rail" oneway="1"/>
    <type id="railway.subway" priority="18" numLanes="1" speed="27.78" allow="rail_urban" oneway="1"/>
    <type id="railway.tram" priority="17" numLanes="1" speed="13.89" allow="tram" oneway="1"/>

    <edge id=":1075544310_0" function="internal">
        <lane id=":1075544310_0_0" index="0" disallow="pedestrian tram rail_urban rail rail_electric rail_fast ship" speed="3.65" length="4.67" shape="613.49,1305.95 613.87,1304.56 614.50,1303.93 615.38,1304.05 616.52,1304.93"/>
    </edge>
    <edge id=":1075544310_w0" function="walkingarea">
        <lane id=":1075544310_w0_0" index="0" allow="pedestrian" speed="1.00" length="8.40" width="2.00" shape="618.04,1304.42 619.93,1303.78 610.08,1307.11 611.98,1306.47"/>
    </edge>
    <edge id=":1208647794_0" function="internal">
        <lane id=":1208647794_0_0" index="0" disallow="pedestrian tram rail_urban rail rail_electric rail_fast ship" speed="8.14" length="8.44" shape="745.89,976.35 743.75,976.99 742.00,978.05 740.62,979.53 739.61,981.42"/>
    </edge>
    <edge id=":1208647794_1" function="internal">
        <lane id=":1208647794_1_0" index="0" disallow="pedestrian tram rail_urban rail rail_electric rail_fast ship" speed="3.65" length="4.67" shape="745.89,976.35 744.56,975.78 744.02,975.07 744.26,974.21 745.29,973.20"/>
    </edge>
    <edge id=":1208647794_2" function="internal">
        <lane id=":1208647794_2_0" index="0" disallow="pedestrian tram rail_urban rail rail_electric rail_fast ship" speed="6.70" length="8.24" shape="738.89,969.30 739.99,971.33 741.43,972.65 743.19,973.28 745.29,973.20"/>
    </edge>
    <edge id=":1208647794_3" function="internal">
        <lane id=":1208647794_3_0" index="0" disallow="pedestrian tram rail_urban rail rail_electric rail_fast ship" speed="8.33" length="12.65" shape="738.89,969.30 740.25,972.78 740.91,975.36 740.74,977.94 739.61,981.42"/>
    </edge>
    <edge id=":1208647794_c0" function="crossing" crossingEdges="-4610480 4610480">
        <lane id=":1208647794_c0_0" index="0" allow="pedestrian" speed="1.00" length="6.40" width="4.00" shape="743.03,972.00 744.22,978.29"/>
    </edge>
    <edge id=":1208647794_w0" function="walkingarea">
        <lane id=":1208647794_w0_0" index="0" allow="pedestrian" speed="1.00" length="3.83" width="4.00" shape="741.29,981.53 743.15,982.26 746.55,979.89 746.18,977.92 744.99,978.23 743.94,978.69 743.03,979.30 742.25,980.05 741.61,980.95"/>
    </edge>
    <edge id=":1208647794_w1" function="walkingarea">
        <lane id=":1208647794_w1_0" index="0" allow="pedestrian" speed="1.00" length="3.31" width="4.00" shape="745.00,971.63 744.63,969.67 742.35,968.26 740.49,969.00 740.89,969.78 741.51,970.61 742.23,971.21 743.05,971.58 743.97,971.72"/>
    </edge>
    <edge id=":1210473765_0" function="internal">
        <lane id=":1210473765_0_0" index="0" disallow="pedestrian tram rail_urban rail rail_electric rail_fast ship" speed="3.65" length="4.67" shape="507.83,1403.57 509.13,1404.20 509.64,1404.93 509.35,1405.78 508.27,1406.74"/>
    </edge>
    <edge id=":1210473765_w0" function="walkingarea">
        <lane id=":1210473765_w0_0" index="0" allow="pedestrian" speed="1.00" length="8.40" width="2.00" shape="508.49,1408.32 508.77,1410.31 507.34,1400.00 507.61,1401.99"/>
    </edge>
    <edge id=":1211114211_0" function="internal">
        <lane id=":1211114211_0_0" index="0" disallow="pedestrian tram rail_urban rail rail_electric rail_fast ship" speed="3.65" length="4.67" shape="1494.41,58.10 1493.70,56.84 1493.70,55.95 1494.42,55.41 1495.85,55.24"/>
    </edge>
    <edge id=":1211114211_w0" function="walkingarea">
        <lane id=":1211114211_w0_0" index="0" allow="pedestrian" speed="1.00" length="8.40" width="2.00" shape="1496.57,53.81 1497.47,52.02 1492.79,61.31 1493.69,59.52"/>
    </edge>
    <edge id=":1275477851_0" function="internal">
        <lane id=":1275477851_0_0" index="0" disallow="pedestrian tram rail_urban rail rail_electric rail_fast ship" speed="3.65" length="4.67" shape="1824.51,1567.68 1824.81,1566.27 1825.40,1565.60 1826.29,1565.68 1827.48,1566.49"/>
    </edge>
    <edge id=":1275477851_w0" function="walkingarea">
        <lane id=":1275477851_w0_0" index="0" allow="pedestrian" speed="1.00" length="8.40" width="2.00" shape="1828.97,1565.90 1830.83,1565.16 1821.17,1569.01 1823.02,1568.27"/>
    </edge>
    <edge id=":1387903273_0" function="internal">
        <lane id=":1387903273_0_0" index="0" disallow="pedestrian tram rail_urban rail rail_electric rail_fast ship" speed="8.33" length="17.32" shape="129.25,996.87 134.33,997.59 137.84,997.86 141.37,997.83 146.51,997.65"/>
    </edge>
    <edge id=":1387903273_1" function="internal">
        <lane id=":1387903273_1_0" index="0" disallow="pedestrian tram rail_urban rail rail_electric rail_fast ship" speed="4.98" length="8.94" shape="129.25,996.87 132.26,997.57 133.32,998.44 132.42,999.48 129.56,1000.67"/>
    </edge>
    <edge id=":1387903273_c0" function="crossing" crossingEdges="24243052#0">
        <lane id=":1387903273_c0_0" index="0" allow="pedestrian" speed="1.00" length="3.20" width="4.00" shape="130.98,998.76 131.47,995.60"/>
    </edge>
    <edge id=":1387903273_c1" function="crossing" crossingEdges="465376243">
        <lane id=":1387903273_c1_0" index="0" allow="pedestrian" speed="1.00" length="3.20" width="4.00" shape="131.97,1001.56 130.96,998.52"/>
    </edge>
    <edge id=":1387903273_w0" function="walkingarea">
        <lane id=":1387903273_w0_0" index="0" allow="pedestrian" speed="1.00" length="11.28" width="4.00" shape="146.38,996.06 146.32,994.06 129.81,993.31 129.50,995.29 133.08,995.82 135.74,996.13 137.94,996.26 140.15,996.26 142.84,996.18"/>
    </edge>
    <edge id=":1387903273_w1" function="walkingarea">
        <lane id=":1387903273_w1_0" index="0" allow="pedestrian" speed="1.00" length="2.24" width="4.00" shape="130.07,1002.19 130.70,1004.09 142.98,999.38 140.33,999.54 138.15,999.83 136.01,1000.31 133.47,1001.07"/>
    </edge>
    <edge id=":1387903273_w2" function="walkingarea">
        <lane id=":1387903273_w2_0" index="0" allow="pedestrian" speed="1.00" length="0.24" width="4.00" shape="132.85,997.89 129.06,999.15 129.00,998.45 132.95,999.07"/>
    </edge>
    <edge id=":1447185655_0" function="internal">
        <lane id=":1447185655_0_0" index="0" disallow="pedestrian tram rail_urban rail rail_electric rail_fast ship" speed="6.27" length="5.69" shape="148.17,1270.26 145.84,1268.64 143.72,1268.33 143.09,1268.65"/>
    </edge>
    <edge id=":1447185655_1" function="internal">
        <lane id=":1447185655_1_0" index="0" disallow="pedestrian tram rail_urban rail rail_electric rail_fast ship" speed="11.11" length="14.76" shape="148.17,1270.26 137.34,1260.23"/>
    </edge>
    <edge id=":1447185655_2" function="internal">
        <lane id=":1447185655_2_0" index="0" disallow="pedestrian tram rail_urban rail rail_electric rail_fast ship" speed="3.65" length="2.34" shape="148.17,1270.26 147.84,1268.86 148.09,1268.00"/>
    </edge>
    <edge id=":1447185655_9" function="internal">
        <lane id=":1447185655_9_0" index="0" disallow="pedestrian tram rail_urban rail rail_electric rail_fast ship" speed="6.27" length="4.28" shape="143.09,1268.65 141.82,1269.32 140.14,1271.61"/>
    </edge>
    <edge id=":1447185655_10" function="internal">
        <lane id=":1447185655_10_0" index="0" disallow="pedestrian tram rail_urban rail rail_electric rail_fast ship" speed="3.65" length="2.34" shape="148.09,1268.00 148.93,1267.69 150.35,1267.92"/>
    </edge>
    <edge id=":1447185655_3" function="internal">
        <lane id=":1447185655_3_0" index="0" disallow="pedestrian tram rail_urban rail rail_electric rail_fast ship" speed="11.11" length="14.77" shape="139.51,1257.88 150.35,1267.92"/>
    </edge>
    <edge id=":1447185655_4" function="internal">
        <lane id=":1447185655_4_0" index="0" disallow="pedestrian tram rail_urban rail rail_electric rail_fast ship" speed="8.33" length="5.20" shape="139.51,1257.88 141.55,1260.58 141.98,1262.35"/>
    </edge>
    <edge id=":1447185655_5" function="internal">
        <lane id=":1447185655_5_0" index="0" disallow="pedestrian tram rail_urban rail rail_electric rail_fast ship" speed="3.65" length="2.34" shape="139.51,1257.88 139.85,1259.28 139.60,1260.14"/>
    </edge>
    <edge id=":1447185655_11" function="internal">
        <lane id=":1447185655_11_0" index="0" disallow="pedestrian tram rail_urban rail rail_electric rail_fast ship" speed="8.33" length="9.68" shape="141.98,1262.35 142.33,1263.77 141.86,1267.45 140.14,1271.61"/>
    </edge>
    <edge id=":1447185655_12" function="internal">
        <lane id=":1447185655_12_0" index="0" disallow="pedestrian tram rail_urban rail rail_electric rail_fast ship" speed="3.65" length="2.34" shape="139.60,1260.14 138.77,1260.45 137.34,1260.23"/>
    </edge>
    <edge id=":1447185655_6" function="internal">
        <lane id=":1447185655_6_0" index="0" disallow="pedestrian tram rail_urban rail rail_electric rail_fast ship" speed="7.75" length="10.65" shape="137.32,1270.10 138.64,1267.00 139.09,1264.32 138.66,1262.06 137.34,1260.23"/>
    </edge>
    <edge id=":1447185655_7" function="internal">
        <lane id=":1447185655_7_0" index="0" disallow="pedestrian tram rail_urban rail rail_electric rail_fast ship" speed="7.82" length="16.17" shape="137.32,1270.10 140.04,1266.38 143.12,1264.78 146.56,1265.29 150.35,1267.92"/>
    </edge>
    <edge id=":1447185655_8" function="internal">
        <lane id=":1447185655_8_0" index="0" disallow="pedestrian tram rail_urban rail rail_electric rail_fast ship" speed="3.65" length="4.67" shape="137.32,1270.10 138.59,1269.42 139.48,1269.44 140.00,1270.17 140.14,1271.61"/>
    </edge>
    <edge id=":1447185655_c0" function="crossing" crossingEdges="-153698390#1 153698390#0">
        <lane id=":1447185655_c0_0" index="0" allow="pedestrian" speed="1.00" length="6.40" width="4.00" shape="149.97,1265.38 145.62,1270.07"/>
    </edge>
    <edge id=":1447185655_c1" function="crossing" crossingEdges="427637455 -427637455">
        <lane id=":1447185655_c1_0" index="0" allow="pedestrian" speed="1.00" length="6.40" width="4.00" shape="137.73,1262.76 142.07,1258.06"/>
    </edge>
    <edge id=":1447185655_c2" function="crossing" crossingEdges="-750204886 750204886">
        <lane id=":1447185655_c2_0" index="0" allow="pedestrian" speed="1.00" length="6.40" width="4.00" shape="142.49,1270.60 136.85,1267.59"/>
    </edge>
    <edge id=":1447185655_w0" function="walkingarea">
        <lane id=":1447185655_w0_0" index="0" allow="pedestrian" speed="1.00" length="3.35" width="4.00" shape="141.55,1272.36 143.32,1273.30 145.72,1272.90 147.08,1271.43 145.99,1270.59 144.97,1270.15 144.02,1270.10 143.13,1270.46 142.31,1271.21"/>
    </edge>
    <edge id=":1447185655_w1" function="walkingarea">
        <lane id=":1447185655_w1_0" index="0" allow="pedestrian" speed="1.00" length="9.28" width="4.00" shape="148.51,1264.02 151.44,1266.74 152.80,1265.28 141.96,1255.23 140.60,1256.70 143.54,1259.42"/>
    </edge>
    <edge id=":1447185655_w2" function="walkingarea">
        <lane id=":1447185655_w2_0" index="0" allow="pedestrian" speed="1.00" length="4.74" width="4.00" shape="136.26,1261.40 134.90,1262.87 134.14,1268.41 135.90,1269.35 136.73,1267.59 137.26,1266.00 137.47,1264.59 137.38,1263.35 136.97,1262.29"/>
    </edge>
    <edge id=":1448679340_0" function="internal">
        <lane id=":1448679340_0_0" index="0" disallow="pedestrian tram rail_urban rail rail_electric rail_fast ship" speed="8.33" length="14.51" shape="539.34,1837.30 534.60,1851.02"/>
    </edge>
    <edge id=":1448679340_1" function="internal">
        <lane id=":1448679340_1_0" index="0" disallow="pedestrian tram rail_urban rail rail_electric rail_fast ship" speed="7.93" length="14.74" shape="539.34,1837.30 537.49,1840.95 534.94,1843.02 531.70,1843.54 527.75,1842.49"/>
    </edge>
    <edge id=":1448679340_2" function="internal">
        <lane id=":1448679340_2_0" index="0" disallow="pedestrian tram rail_urban rail rail_electric rail_fast ship" speed="3.65" length="4.67" shape="539.34,1837.30 538.20,1838.18 537.31,1838.31 536.68,1837.67 536.31,1836.28"/>
    </edge>
    <edge id=":1448679340_3" function="internal">
        <lane id=":1448679340_3_0" index="0" disallow="pedestrian tram rail_urban rail rail_electric rail_fast ship" speed="6.43" length="9.29" shape="529.01,1839.54 531.49,1840.20 533.54,1839.88 535.15,1838.57 536.31,1836.28"/>
    </edge>
    <edge id=":1448679340_4" function="internal">
        <lane id=":1448679340_4_0" index="0" disallow="pedestrian tram rail_urban rail rail_electric rail_fast ship" speed="8.24" length="14.36" shape="529.01,1839.54 532.50,1841.60 534.60,1844.20 535.30,1847.34 534.60,1851.02"/>
    </edge>
    <edge id=":1448679340_5" function="internal">
        <lane id=":1448679340_5_0" index="0" disallow="pedestrian tram rail_urban rail rail_electric rail_fast ship" speed="3.65" length="4.67" shape="529.01,1839.54 529.80,1840.75 529.85,1841.64 529.17,1842.22 527.75,1842.49"/>
    </edge>
    <edge id=":1448679340_6" function="internal">
        <lane id=":1448679340_6_0" index="0" disallow="pedestrian tram rail_urban rail rail_electric rail_fast ship" speed="6.79" length="9.43" shape="531.58,1849.95 532.02,1847.59 531.52,1845.55 530.10,1843.85 527.75,1842.49"/>
    </edge>
    <edge id=":1448679340_7" function="internal">
        <lane id=":1448679340_7_0" index="0" disallow="pedestrian tram rail_urban rail rail_electric rail_fast ship" speed="8.33" length="14.47" shape="531.58,1849.95 536.31,1836.28"/>
    </edge>
    <edge id=":1448679340_8" function="internal">
        <lane id=":1448679340_8_0" index="0" disallow="pedestrian tram rail_urban rail rail_electric rail_fast ship" speed="3.65" length="4.67" shape="531.58,1849.95 532.74,1849.09 533.63,1848.98 534.25,1849.62 534.60,1851.02"/>
    </edge>
    <edge id=":1448679340_c0" function="crossing" crossingEdges="312651888#1 -312651888#1">
        <lane id=":1448679340_c0_0" index="0" allow="pedestrian" speed="1.00" length="6.40" width="4.00" shape="534.15,1837.66 540.21,1839.71"/>
    </edge>
    <edge id=":1448679340_c1" function="crossing" crossingEdges="-153692976#1 153692976#1">
        <lane id=":1448679340_c1_0" index="0" allow="pedestrian" speed="1.00" length="6.40" width="4.00" shape="528.96,1844.74 531.48,1838.85"/>
    </edge>
    <edge id=":1448679340_c2" function="crossing" crossingEdges="-312651888#0 312651888#0">
        <lane id=":1448679340_c2_0" index="0" allow="pedestrian" speed="1.00" length="6.40" width="4.00" shape="536.78,1849.66 530.74,1847.54"/>
    </edge>
    <edge id=":1448679340_w0" function="walkingarea">
        <lane id=":1448679340_w0_0" index="0" allow="pedestrian" speed="1.00" length="9.11" width="4.00" shape="537.44,1847.78 536.11,1851.55 538.00,1852.22 542.75,1838.46 540.86,1837.82 539.57,1841.61"/>
    </edge>
    <edge id=":1448679340_w1" function="walkingarea">
        <lane id=":1448679340_w1_0" index="0" allow="pedestrian" speed="1.00" length="3.32" width="4.00" shape="534.80,1835.76 532.90,1835.12 530.42,1836.23 529.64,1838.07 530.84,1838.46 531.91,1838.54 532.84,1838.31 533.63,1837.77 534.28,1836.92"/>
    </edge>
    <edge id=":1448679340_w2" function="walkingarea">
        <lane id=":1448679340_w2_0" index="0" allow="pedestrian" speed="1.00" length="3.63" width="4.00" shape="527.12,1843.96 526.34,1845.80 528.19,1848.76 530.08,1849.42 530.35,1848.25 530.32,1847.19 529.98,1846.23 529.34,1845.37 528.38,1844.61"/>
    </edge>
    <edge id=":1475313873_0" function="internal">
        <lane id=":1475313873_0_0" index="0" disallow="pedestrian tram rail_urban rail rail_electric rail_fast ship" speed="7.10" length="9.24" shape="1243.61,158.59 1242.17,161.15 1241.55,163.41 1241.77,165.38 1242.82,167.05"/>
    </edge>
    <edge id=":1475313873_1" function="internal">
        <lane id=":1475313873_1_0" index="0" disallow="pedestrian tram rail_urban rail rail_electric rail_fast ship" speed="7.93" length="11.76" shape="1243.61,158.59 1241.33,162.30 1240.05,165.31 1239.78,167.64 1240.51,169.27"/>
    </edge>
    <edge id=":1475313873_2" function="internal">
        <lane id=":1475313873_2_0" index="0" allow="bus bicycle" speed="13.89" length="8.43" shape="1237.06,160.97 1242.82,167.05"/>
        <lane id=":1475313873_2_1" index="1" disallow="pedestrian tram rail_urban rail rail_electric rail_fast ship" speed="13.89" length="8.43" shape="1234.73,163.16 1240.51,169.27"/>
        <lane id=":1475313873_2_2" index="2" disallow="pedestrian tram rail_urban rail rail_electric rail_fast ship" speed="13.89" length="8.43" shape="1232.40,165.35 1238.20,171.48"/>
        <lane id=":1475313873_2_3" index="3" disallow="pedestrian tram rail_urban rail rail_electric rail_fast ship" speed="13.89" length="8.43" shape="1230.06,167.54 1235.89,173.70"/>
    </edge>
    <edge id=":1475313873_c0" function="crossing" crossingEdges="4840859#0">
        <lane id=":1475313873_c0_0" index="0" allow="pedestrian" speed="1.00" length="3.20" width="4.00" shape="1241.16,159.33 1243.80,161.14"/>
    </edge>
    <edge id=":1475313873_w0" function="walkingarea">
        <lane id=":1475313873_w0_0" index="0" allow="pedestrian" speed="1.00" length="3.70" width="4.00" shape="1243.97,165.94 1246.14,163.87 1246.58,160.63 1244.93,159.49 1244.08,160.88 1243.50,162.14 1243.20,163.28 1243.18,164.29 1243.44,165.18"/>
    </edge>
    <edge id=":1475313873_w1" function="walkingarea">
        <lane id=":1475313873_w1_0" index="0" allow="pedestrian" speed="1.00" length="1.90" width="4.00" shape="1242.29,157.68 1240.42,157.83 1238.23,159.88 1238.75,160.25 1239.34,160.33 1239.98,160.12 1240.69,159.60 1241.46,158.79"/>
    </edge>
    <edge id=":160493853_0" function="internal">
        <lane id=":160493853_0_0" index="0" disallow="pedestrian tram rail_urban rail rail_electric rail_fast ship" speed="13.89" length="8.03" shape="923.21,746.60 920.87,746.48 919.26,746.80 917.64,747.20 915.27,747.27"/>
    </edge>
    <edge id=":160493853_w0" function="walkingarea">
        <lane id=":160493853_w0_0" index="0" allow="pedestrian" speed="1.00" length="7.56" width="3.00" shape="915.15,748.86 914.93,751.86 921.95,754.30 922.44,751.34 920.85,750.96 919.71,750.48 918.81,749.98 917.90,749.49 916.76,749.10"/>
    </edge>
    <edge id=":1630500695_0" function="internal">
        <lane id=":1630500695_0_0" index="0" disallow="pedestrian tram rail_urban rail rail_electric rail_fast ship" speed="7.69" length="6.72" shape="1664.07,1279.53 1662.30,1278.63 1660.07,1278.67 1657.72,1279.52"/>
    </edge>
    <edge id=":1630500695_1" function="internal">
        <lane id=":1630500695_1_0" index="0" disallow="pedestrian tram rail_urban rail rail_electric rail_fast ship" speed="13.89" length="14.22" shape="1664.07,1279.53 1653.23,1270.60"/>
        <lane id=":1630500695_1_1" index="1" disallow="pedestrian tram rail_urban rail rail_electric rail_fast ship" speed="13.89" length="14.22" shape="1666.19,1277.13 1655.21,1268.09"/>
        <lane id=":1630500695_1_2" index="2" disallow="pedestrian tram rail_urban rail rail_electric rail_fast ship" speed="13.89" length="14.22" shape="1668.32,1274.74 1657.20,1265.58"/>
    </edge>
    <edge id=":1630500695_6" function="internal">
        <lane id=":1630500695_6_0" index="0" disallow="pedestrian tram rail_urban rail rail_electric rail_fast ship" speed="7.69" length="4.02" shape="1657.72,1279.52 1657.39,1279.64 1654.25,1281.55"/>
    </edge>
    <edge id=":1630500695_4" function="internal">
        <lane id=":1630500695_4_0" index="0" disallow="pedestrian tram rail_urban rail rail_electric rail_fast ship" speed="6.33" length="10.34" shape="1652.41,1278.94 1654.71,1276.83 1655.61,1274.73 1655.12,1272.66 1653.23,1270.60"/>
    </edge>
    <edge id=":1630500695_5" function="internal">
        <lane id=":1630500695_5_0" index="0" disallow="pedestrian tram rail_urban rail rail_electric rail_fast ship" speed="3.65" length="4.67" shape="1652.41,1278.94 1653.85,1278.90 1654.64,1279.32 1654.77,1280.21 1654.25,1281.55"/>
    </edge>
    <edge id=":1630500695_c0" function="crossing" crossingEdges="-24990040 24990040">
        <lane id=":1630500695_c0_0" index="0" allow="pedestrian" speed="1.00" length="6.40" width="4.00" shape="1656.81,1281.71 1653.11,1276.48"/>
    </edge>
    <edge id=":1630500695_w0" function="walkingarea">
        <lane id=":1630500695_w0_0" index="0" allow="pedestrian" speed="1.00" length="4.66" width="4.00" shape="1655.18,1282.86 1656.33,1284.49 1661.02,1282.97 1663.01,1280.72 1662.20,1280.26 1661.19,1280.12 1659.98,1280.31 1658.58,1280.83 1656.98,1281.68"/>
    </edge>
    <edge id=":1630500695_w1" function="walkingarea">
        <lane id=":1630500695_w1_0" index="0" allow="pedestrian" speed="1.00" length="3.32" width="4.00" shape="1652.24,1271.85 1650.37,1274.20 1650.33,1276.00 1651.48,1277.64 1652.68,1276.64 1653.46,1275.66 1653.80,1274.68 1653.71,1273.73 1653.19,1272.78"/>
    </edge>
    <edge id=":1661927348_0" function="internal">
        <lane id=":1661927348_0_0" index="0" disallow="pedestrian tram rail_urban rail rail_electric rail_fast ship" speed="3.65" length="4.67" shape="1636.05,1908.14 1635.89,1909.57 1635.37,1910.30 1634.48,1910.31 1633.21,1909.62"/>
    </edge>