<?xml version="1.0" encoding="UTF-8"?>
<!-- generated on 2020-12-20 00:16:53.921546 by osmWebWizard.py v1_6_0+1927-b00c2fec16
  options: 
-->
<routes xmlns:xsi="http://www.w3.org/2001/XMLSchema-instance" xsi:noNamespaceSchemaLocation="http://sumo.dlr.de/xsd/routes_file.xsd">
    <vType id="ped_pedestrian" vClass="pedestrian"/>
    <person id="ped0" depart="0.00" type="ped_pedestrian">
        <walk from="328426253" to="-158023913#5"/>
    </person>
    <person id="ped1" depart="2.64" type="ped_pedestrian">
        <walk from="-4613293#1" to="-4610480"/>
    </person>
    <person id="ped2" depart="5.27" type="ped_pedestrian">
        <walk from="44427220#0" to="35578557"/>
    </person>
    <person id="ped3" depart="7.91" type="ped_pedestrian">
        <walk from="541295974" to="-23121445#5"/>
    </person>
    <person id="ped4" depart="10.55" type="ped_pedestrian">
        <walk from="168940071#0" to="-15973619#8"/>
    </person>
    <person id="ped5" depart="13.18" type="ped_pedestrian">
        <walk from="-4610375" to="23017853"/>
    </person>
    <person id="ped6" depart="15.82" type="ped_pedestrian">
        <walk from="-15973619#12" to="-43376477#1"/>
    </person>
    <person id="ped7" depart="18.46" type="ped_pedestrian">
        <walk from="340498982#0" to="24243052#1"/>
    </person>
    <person id="ped8" depart="21.09" type="ped_pedestrian">
        <walk from="-4610472#1" to="268002748"/>
    </person>
    <person id="ped9" depart="23.73" type="ped_pedestrian">
        <walk from="4611718#1" to="-112128825#1"/>
    </person>
    <person id="ped10" depart="26.37" type="ped_pedestrian">
        <walk from="4611714#4" to="374734389#0"/>
    </person>
    <person id="ped11" depart="29.00" type="ped_pedestrian">
        <walk from="-77348147" to="-328426193#2"/>
    </person>
    <person id="ped12" depart="31.64" type="ped_pedestrian">
        <walk from="753730627#0" to="-755340907"/>
    </person>
    <person id="ped13" depart="34.28" type="ped_pedestrian">
        <walk from="-23755961#2" to="-23852056#2"/>
    </person>
    <person id="ped14" depart="36.91" type="ped_pedestrian">
        <walk from="46140376#0" to="305153173"/>
    </person>
    <person id="ped15" depart="39.55" type="ped_pedestrian">
        <walk from="4611718#0" to="437325054#0"/>
    </person>
    <person id="ped16" depart="42.19" type="ped_pedestrian">
        <walk from="24241790#0" to="81112790#0"/>
    </person>
    <person id="ped17" depart="44.82" type="ped_pedestrian">
        <walk from="120359703" to="243854725#0"/>
    </person>
    <person id="ped18" depart="47.46" type="ped_pedestrian">
        <walk from="4613293#0" to="309479676"/>
    </person>
    <person id="ped19" depart="50.10" type="ped_pedestrian">
        <walk from="4773029#0" to="251884680"/>
    </person>
    <person id="ped20" depart="52.73" type="ped_pedestrian">
        <walk from="389101374" to="-169999355#2"/>
    </person>
    <person id="ped21" depart="55.37" type="ped_pedestrian">
        <walk from="-4610608" to="-47755711#2"/>
    </person>
    <person id="ped22" depart="58.01" type="ped_pedestrian">
        <walk from="-22972473#6" to="-4610610#2"/>
    </person>
    <person id="ped23" depart="60.64" type="ped_pedestrian">
        <walk from="-24241762#3" to="-4613299#1"/>
    </person>
    <person id="ped24" depart="63.28" type="ped_pedestrian">
        <walk from="328426208#0" to="111251382#0"/>
    </person>
    <person id="ped25" depart="65.92" type="ped_pedestrian">
        <walk from="112128419#0" to="-4412868"/>
    </person>
    <person id="ped26" depart="68.55" type="ped_pedestrian">
        <walk from="-4612422" to="66514478"/>
    </person>
    <person id="ped27" depart="71.19" type="ped_pedestrian">
        <walk from="340498976#1" to="30705211#4"/>
    </person>
    <person id="ped28" depart="73.83" type="ped_pedestrian">
        <walk from="-35557161#4" to="437325054#0"/>
    </person>
    <person id="ped29" depart="76.46" type="ped_pedestrian">
        <walk from="-339201185" to="120359703"/>
    </person>
    <person id="ped30" depart="79.10" type="ped_pedestrian">
        <walk from="83517336#3" to="328426253"/>
    </person>
    <person id="ped31" depart="81.74" type="ped_pedestrian">
        <walk from="24509318" to="36892597#0"/>
    </person>
    <person id="ped32" depart="84.37" type="ped_pedestrian">
        <walk from="4613299#0" to="4610610#2"/>
    </person>
    <person id="ped33" depart="87.01" type="ped_pedestrian">
        <walk from="-4610610#0" to="-15973619#9"/>
    </person>
    <person id="ped34" depart="89.65" type="ped_pedestrian">
        <walk from="-454285423#4" to="72678523#0"/>
    </person>
    <person id="ped35" depart="92.28" type="ped_pedestrian">
        <walk from="490365295#0" to="-6227658#3"/>
    </person>
    <person id="ped36" depart="94.92" type="ped_pedestrian">
        <walk from="340498988#0" to="153698394#2"/>
    </person>
    <person id="ped37" depart="97.56" type="ped_pedestrian">
        <walk from="60333311#0" to="194069450#0"/>
    </person>
    <person id="ped38" depart="100.19" type="ped_pedestrian">
        <walk from="-4612414#1" to="-4611710#2"/>
    </person>
    <person id="ped39" depart="102.83" type="ped_pedestrian">
        <walk from="24914141#0" to="-4611718#0"/>
    </person>
    <person id="ped40" depart="105.47" type="ped_pedestrian">
        <walk from="25294729#1" to="541763975"/>
    </person>
    <person id="ped41" depart="108.10" type="ped_pedestrian">
        <walk from="156364566#0" to="-4610375"/>
    </person>
    <person id="ped42" depart="110.74" type="ped_pedestrian">
        <walk from="882389494" to="237209664"/>
    </person>
    <person id="ped43" depart="113.38" type="ped_pedestrian">
        <walk from="-23755961#1" to="-173296880"/>
    </person>
    <person id="ped44" depart="116.01" type="ped_pedestrian">
        <walk from="-24242882#3" to="316746323#0"/>
    </person>
    <person id="ped45" depart="118.65" type="ped_pedestrian">
        <walk from="4611708#3" to="168940071#0"/>
    </person>
    <person id="ped46" depart="121.29" type="ped_pedestrian">
        <walk from="-195430954#1" to="122820534#0"/>
    </person>
    <person id="ped47" depart="123.92" type="ped_pedestrian">
        <walk from="84960597#0" to="23852056#0"/>
    </person>
    <person id="ped48" depart="126.56" type="ped_pedestrian">
        <walk from="803483098#2" to="4773029#0"/>
    </person>
    <person id="ped49" depart="129.20" type="ped_pedestrian">
        <walk from="-136571494#4" to="43230886"/>
    </person>
    <person id="ped50" depart="131.83" type="ped_pedestrian">
        <walk from="36689633#0" to="24241797#0"/>
    </person>
    <person id="ped51" depart="134.47" type="ped_pedestrian">
        <walk from="-4612422" to="328426253"/>
    </person>
    <person id="ped52" depart="137.11" type="ped_pedestrian">
        <walk from="-24243107#1" to="169195795#8"/>
    </person>
    <person id="ped53" depart="139.74" type="ped_pedestrian">
        <walk from="19002363#3" to="751595929#0"/>
    </person>
    <person id="ped54" depart="142.38" type="ped_pedestrian">
        <walk from="489068253" to="-4611718#1"/>
    </person>
    <person id="ped55" depart="145.02" type="ped_pedestrian">
        <walk from="22972473#3" to="-36892597#2"/>
    </person>
    <person id="ped56" depart="147.65" type="ped_pedestrian">
        <walk from="60333309#0" to="47755711#0"/>
    </person>
    <person id="ped57" depart="150.29" type="ped_pedestrian">
        <walk from="-505475202#1" to="328426251#0"/>
    </person>
    <person id="ped58" depart="152.93" type="ped_pedestrian">
        <walk from="30705211#4" to="-312651888#1"/>
    </person>
    <person id="ped59" depart="155.56" type="ped_pedestrian">
        <walk from="4610476#0" to="24242882#0"/>
    </person>
    <person id="ped60" depart="158.20" type="ped_pedestrian">
        <walk from="4610610#3" to="24241762#0"/>
    </person>
    <person id="ped61" depart="160.84" type="ped_pedestrian">
        <walk from="-111251382#2" to="-66071373#3"/>
    </person>
    <person id="ped62" depart="163.47" type="ped_pedestrian">
        <walk from="-153698390#1" to="625843712"/>
    </person>
    <person id="ped63" depart="166.11" type="ped_pedestrian">
        <walk from="492340367#0" to="4613293#1"/>
    </person>
    <person id="ped64" depart="168.75" type="ped_pedestrian">
        <walk from="-55741054" to="-195397561#6"/>
    </person>
    <person id="ped65" depart="171.38" type="ped_pedestrian">
        <walk from="490365295#0" to="73310499#2"/>
    </person>
    <person id="ped66" depart="174.02" type="ped_pedestrian">
        <walk from="-23121445#5" to="222328410"/>
    </person>
    <person id="ped67" depart="176.66" type="ped_pedestrian">
        <walk from="-222328410" to="4610472#2"/>
    </person>
    <person id="ped68" depart="179.29" type="ped_pedestrian">
        <walk from="4610480" to="-25258502"/>
    </person>
    <person id="ped69" depart="181.93" type="ped_pedestrian">
        <walk from="202156994#0" to="24243107#2"/>
    </person>
    <person id="ped70" depart="184.57" type="ped_pedestrian">
        <walk from="-4612414#1" to="4790825#0"/>
    </person>
    <person id="ped71" depart="187.20" type="ped_pedestrian">
        <walk from="168940071#0" to="-454285423#4"/>
    </person>
    <person id="ped72" depart="189.84" type="ped_pedestrian">
        <walk from="24242882#0" to="437325054#0"/>
    </person>
    <person id="ped73" depart="192.48" type="ped_pedestrian">
        <walk from="-437325047#3" to="-562707499"/>
    </person>
    <person id="ped74" depart="195.11" type="ped_pedestrian">
        <walk from="84960597#0" to="340498982#0"/>
    </person>
    <person id="ped75" depart="197.75" type="ped_pedestrian">
        <walk from="171423001#0" to="23812656#0"/>
    </person>
    <person id="ped76" depart="200.39" type="ped_pedestrian">
        <walk from="-24992424#2" to="-4610480"/>
    </person>
    <person id="ped77" depart="203.02" type="ped_pedestrian">
        <walk from="-755551646#1" to="268002745"/>
    </person>
    <person id="ped78" depart="205.66" type="ped_pedestrian">
        <walk from="-4610610#1" to="-4610472#1"/>
    </person>
    <person id="ped79" depart="208.30" type="ped_pedestrian">
        <walk from="-225400578#2" to="318915602#0"/>
    </person>
    <person id="ped80" depart="210.93" type="ped_pedestrian">
        <walk from="-4610610#0" to="54781811#0"/>
    </person>
    <person id="ped81" depart="213.57" type="ped_pedestrian">
        <walk from="47707171#0" to="-225400578#2"/>
    </person>
    <person id="ped82" depart="216.21" type="ped_pedestrian">
        <walk from="-4611696#3" to="35557143#0"/>
    </person>
    <person id="ped83" depart="218.84" type="ped_pedestrian">
        <walk from="-4566442" to="-25294729#1"/>
    </person>
    <person id="ped84" depart="221.48" type="ped_pedestrian">
        <walk from="66071370" to="24992424#3"/>
    </person>
    <person id="ped85" depart="224.12" type="ped_pedestrian">
        <walk from="202156991#0" to="4611696#4"/>
    </person>
    <person id="ped86" depart="226.75" type="ped_pedestrian">
        <walk from="4611718#0" to="-427637455"/>
    </person>
    <person id="ped87" depart="229.39" type="ped_pedestrian">
        <walk from="-23852056#2" to="169195795#2"/>
    </person>
    <person id="ped88" depart="232.03" type="ped_pedestrian">
        <walk from="168940071#2" to="195430954#0"/>
    </person>
    <person id="ped89" depart="234.66" type="ped_pedestrian">
        <walk from="437325054#0" to="35557161#4"/>
    </person>
    <person id="ped90" depart="237.30" type="ped_pedestrian">
        <walk from="831860725#0" to="-24241762#2"/>
    </person>
    <person id="ped91" depart="239.94" type="ped_pedestrian">
        <walk from="156364570#1" to="-755551646#1"/>
    </person>
    <person id="ped92" depart="242.57" type="ped_pedestrian">
        <walk from="4773029#0" to="-4611711#1"/>
    </person>
    <person id="ped93" depart="245.21" type="ped_pedestrian">
        <walk from="-427637455" to="19002357#0"/>
    </person>
    <person id="ped94" depart="247.85" type="ped_pedestrian">
        <walk from="168940071#0" to="-4613299#1"/>
    </person>
    <person id="ped95" depart="250.48" type="ped_pedestrian">
        <walk from="-4611712" to="61584187#0"/>
    </person>
    <person id="ped96" depart="253.12" type="ped_pedestrian">
        <walk from="183415643" to="4773029#0"/>
    </person>
    <person id="ped97" depart="255.76" type="ped_pedestrian">
        <walk from="24243107#2" to="-19002363#0"/>
    </person>
    <person id="ped98" depart="258.39" type="ped_pedestrian">
        <walk from="882389497" to="4613295#0"/>
    </person>
    <person id="ped99" depart="261.03" type="ped_pedestrian">
        <walk from="803483098#0" to="6227658#2"/>
    </person>
    <person id="ped100" depart="263.67" type="ped_pedestrian">
        <walk from="461526152#0" to="-35557143#4"/>
    </person>
    <person id="ped101" depart="266.31" type="ped_pedestrian">
        <walk from="222328410" to="-4566442"/>
    </person>
    <person id="ped102" depart="268.94" type="ped_pedestrian">
        <walk from="156364570#0" to="-195397561#6"/>
    </person>
    <person id="ped103" depart="271.58" type="ped_pedestrian">
        <walk from="120359703" to="83517332#0"/>
    </person>
    <person id="ped104" depart="274.22" type="ped_pedestrian">
        <walk from="-4612414#1" to="4611696#4"/>
    </person>
    <person id="ped105" depart="276.85" type="ped_pedestrian">
        <walk from="19002403#0" to="168940071#0"/>
    </person>
    <person id="ped106" depart="279.49" type="ped_pedestrian">
        <walk from="753730627#0" to="84960597#0"/>
    </person>
    <person id="ped107" depart="282.13" type="ped_pedestrian">
        <walk from="24509318" to="43159545#0"/>
    </person>
    <person id="ped108" depart="284.76" type="ped_pedestrian">
        <walk from="-312651888#2" to="-495066404"/>
    </person>
    <person id="ped109" depart="287.40" type="ped_pedestrian">
        <walk from="803483098#0" to="25258502"/>
    </person>
    <person id="ped110" depart="290.04" type="ped_pedestrian">
        <walk from="24243052#0" to="4610351#0"/>
    </person>
    <person id="ped111" depart="292.67" type="ped_pedestrian">
        <walk from="-194069450#2" to="25294729#1"/>
    </person>
    <person id="ped112" depart="295.31" type="ped_pedestrian">
        <walk from="22972473#4" to="465376243"/>
    </person>
    <person id="ped113" depart="297.95" type="ped_pedestrian">
        <walk from="-328426236" to="755551646#2"/>
    </person>
    <person id="ped114" depart="300.58" type="ped_pedestrian">
        <walk from="-22972473#6" to="-371927739"/>
    </person>
    <person id="ped115" depart="303.22" type="ped_pedestrian">
        <walk from="289966097" to="35557161#5"/>
    </person>
    <person id="ped116" depart="305.86" type="ped_pedestrian">
        <walk from="-4610612" to="-24990040"/>
    </person>
    <person id="ped117" depart="308.49" type="ped_pedestrian">
        <walk from="54048863" to="-4611710#2"/>
    </person>
    <person id="ped118" depart="311.13" type="ped_pedestrian">
        <walk from="289966097" to="309479676"/>
    </person>
    <person id="ped119" depart="313.77" type="ped_pedestrian">
        <walk from="165415464#0" to="25294729#1"/>
    </person>
    <person id="ped120" depart="316.40" type="ped_pedestrian">
        <walk from="23851919" to="66071370"/>
    </person>
    <person id="ped121" depart="319.04" type="ped_pedestrian">
        <walk from="-437325054#2" to="43156537"/>
    </person>
    <person id="ped122" depart="321.68" type="ped_pedestrian">
        <walk from="-4611706#1" to="153698394#2"/>
    </person>
    <person id="ped123" depart="324.31" type="ped_pedestrian">
        <walk from="35557161#2" to="-51167934#4"/>
    </person>
    <person id="ped124" depart="326.95" type="ped_pedestrian">
        <walk from="-6228081" to="4610355#0"/>
    </person>
    <person id="ped125" depart="329.59" type="ped_pedestrian">
        <walk from="-22954356" to="194069450#0"/>
    </person>
    <person id="ped126" depart="332.22" type="ped_pedestrian">
        <walk from="882389497" to="84960597#0"/>
    </person>
    <person id="ped127" depart="334.86" type="ped_pedestrian">
        <walk from="-22972470#1" to="-4566442"/>
    </person>
    <person id="ped128" depart="337.50" type="ped_pedestrian">
        <walk from="-4612414#1" to="66071366#2"/>
    </person>
    <person id="ped129" depart="340.13" type="ped_pedestrian">
        <walk from="493008124#0" to="492340367#0"/>
    </person>
    <person id="ped130" depart="342.77" type="ped_pedestrian">
        <walk from="112128419#0" to="-328426236"/>
    </person>
    <person id="ped131" depart="345.41" type="ped_pedestrian">
        <walk from="30721660#0" to="83517336#0"/>
    </person>
    <person id="ped132" depart="348.04" type="ped_pedestrian">
        <walk from="340498982#8" to="-11483007#2"/>
    </person>
    <person id="ped133" depart="350.68" type="ped_pedestrian">
        <walk from="4612965" to="-505475202#1"/>
    </person>
    <person id="ped134" depart="353.32" type="ped_pedestrian">
        <walk from="34848160#0" to="68647306#0"/>
    </person>
    <person id="ped135" depart="355.95" type="ped_pedestrian">
        <walk from="-268002745" to="-243854725#3"/>
    </person>
    <person id="ped136" depart="358.59" type="ped_pedestrian">
        <walk from="-24242882#0" to="243854725#4"/>
    </person>
    <person id="ped137" depart="361.23" type="ped_pedestrian">
        <walk from="-4613293#0" to="30705210"/>
    </person>
    <person id="ped138" depart="363.86" type="ped_pedestrian">
        <walk from="43156537" to="-437325047#5"/>
    </person>
    <person id="ped139" depart="366.50" type="ped_pedestrian">
        <walk from="328426208#0" to="-4611718#1"/>
    </person>
    <person id="ped140" depart="369.14" type="ped_pedestrian">
        <walk from="22954356" to="54781811#0"/>
    </person>
    <person id="ped141" depart="371.77" type="ped_pedestrian">
        <walk from="4613308#0" to="-23755961#1"/>
    </person>
    <person id="ped142" depart="374.41" type="ped_pedestrian">
        <walk from="168940071#2" to="-4613298#1"/>
    </person>
    <person id="ped143" depart="377.05" type="ped_pedestrian">
        <walk from="-112128825#0" to="4610608"/>
    </person>
    <person id="ped144" depart="379.68" type="ped_pedestrian">
        <walk from="328426236" to="-4611718#0"/>
    </person>
    <person id="ped145" depart="382.32" type="ped_pedestrian">
        <walk from="4566442" to="243854725#0"/>
    </person>
    <person id="ped146" depart="384.96" type="ped_pedestrian">
        <walk from="168943640#0" to="-122820534#1"/>
    </person>
    <person id="ped147" depart="387.59" type="ped_pedestrian">
        <walk from="-22972473#2" to="495066404"/>
    </person>
    <person id="ped148" depart="390.23" type="ped_pedestrian">
        <walk from="544327503#0" to="24243092#0"/>
    </person>
    <person id="ped149" depart="392.87" type="ped_pedestrian">
        <walk from="4613295#0" to="25294729#0"/>
    </person>
    <person id="ped150" depart="395.50" type="ped_pedestrian">
        <walk from="-310176513#2" to="-25258502"/>
    </person>
    <person id="ped151" depart="398.14" type="ped_pedestrian">
        <walk from="-55741054" to="541763976"/>
    </person>
    <person id="ped152" depart="400.78" type="ped_pedestrian">
        <walk from="4611712" to="4773029#0"/>
    </person>
    <person id="ped153" depart="403.41" type="ped_pedestrian">
        <walk from="541763975" to="-4412868"/>
    </person>
    <person id="ped154" depart="406.05" type="ped_pedestrian">
        <walk from="-4611712" to="-24241790#3"/>
    </person>
    <person id="ped155" depart="408.69" type="ped_pedestrian">
        <walk from="4610612" to="51167934#0"/>
    </person>
    <person id="ped156" depart="411.32" type="ped_pedestrian">
        <walk from="15971197#0" to="312357351#0"/>
    </person>
    <person id="ped157" depart="413.96" type="ped_pedestrian">
        <walk from="-312651888#2" to="625843712"/>
    </person>
    <person id="ped158" depart="416.60" type="ped_pedestrian">
        <walk from="4773464#0" to="82652816"/>
    </person>
    <person id="ped159" depart="419.23" type="ped_pedestrian">
        <walk from="4611726" to="493008124#0"/>
    </person>
    <person id="ped160" depart="421.87" type="ped_pedestrian">
        <walk from="-158023913#5" to="44427220#0"/>
    </person>
    <person id="ped161" depart="424.51" type="ped_pedestrian">
        <walk from="-750204886" to="66071366#0"/>
    </person>
    <person id="ped162" depart="427.14" type="ped_pedestrian">
        <walk from="4611714#10" to="4773463#1"/>
    </person>
    <person id="ped163" depart="429.78" type="ped_pedestrian">
        <walk from="4611726" to="-4612422"/>
    </person>
    <person id="ped164" depart="432.42" type="ped_pedestrian">
        <walk from="4611706#0" to="-24242882#3"/>
    </person>
    <person id="ped165" depart="435.05" type="ped_pedestrian">
        <walk from="4790825#0" to="47707170#0"/>
    </person>
    <person id="ped166" depart="437.69" type="ped_pedestrian">
        <walk from="-4610472#2" to="4612963"/>
    </person>
    <person id="ped167" depart="440.33" type="ped_pedestrian">
        <walk from="194962375#0" to="-541295974"/>
    </person>
    <person id="ped168" depart="442.96" type="ped_pedestrian">
        <walk from="4611712" to="-4610608"/>
    </person>
    <person id="ped169" depart="445.60" type="ped_pedestrian">
        <walk from="-156364570#4" to="-43156537"/>
    </person>
    <person id="ped170" depart="448.24" type="ped_pedestrian">
        <walk from="-73310499#1" to="4773464#0"/>
    </person>
    <person id="ped171" depart="450.87" type="ped_pedestrian">
        <walk from="77348147" to="-4613299#2"/>
    </person>
    <person id="ped172" depart="453.51" type="ped_pedestrian">
        <walk from="328426256#0" to="156364566#0"/>
    </person>
    <person id="ped173" depart="456.15" type="ped_pedestrian">
        <walk from="831694400" to="24241790#0"/>
    </person>
    <person id="ped174" depart="458.78" type="ped_pedestrian">
        <walk from="713577963" to="-243854725#3"/>
    </person>
    <person id="ped175" depart="461.42" type="ped_pedestrian">
        <walk from="803483098#2" to="-36892597#2"/>
    </person>
    <person id="ped176" depart="464.06" type="ped_pedestrian">
        <walk from="755551647" to="-4612414#1"/>
    </person>
    <person id="ped177" depart="466.69" type="ped_pedestrian">
        <walk from="-24242882#3" to="169195795#8"/>
    </person>
    <person id="ped178" depart="469.33" type="ped_pedestrian">
        <walk from="437325054#0" to="-6227658#3"/>
    </person>
    <person id="ped179" depart="471.97" type="ped_pedestrian">
        <walk from="30705210" to="23755950#0"/>
    </person>
    <person id="ped180" depart="474.60" type="ped_pedestrian">
        <walk from="136571494#0" to="24997595#0"/>
    </person>
    <person id="ped181" depart="477.24" type="ped_pedestrian">
        <walk from="-4611714#1" to="415280722"/>
    </person>
    <person id="ped182" depart="479.88" type="ped_pedestrian">
        <walk from="-111251382#2" to="6227658#2"/>
    </person>
    <person id="ped183" depart="482.51" type="ped_pedestrian">
        <walk from="24242882#0" to="43159545#0"/>
    </person>
    <person id="ped184" depart="485.15" type="ped_pedestrian">
        <walk from="4566442" to="35557161#0"/>
    </person>
    <person id="ped185" depart="487.79" type="ped_pedestrian">
        <walk from="111251382#0" to="-225400578#2"/>
    </person>
    <person id="ped186" depart="490.42" type="ped_pedestrian">
        <walk from="35269774#0" to="-743631784"/>
    </person>
    <person id="ped187" depart="493.06" type="ped_pedestrian">
        <walk from="-6227658#3" to="46140376#0"/>
    </person>
    <person id="ped188" depart="495.70" type="ped_pedestrian">
        <walk from="43230886" to="-51167934#4"/>
    </person>
    <person id="ped189" depart="498.33" type="ped_pedestrian">
        <walk from="-560370523" to="15973619#10"/>
    </person>
    <person id="ped190" depart="500.97" type="ped_pedestrian">
        <walk from="156364570#0" to="-493008124#1"/>
    </person>
    <person id="ped191" depart="503.61" type="ped_pedestrian">
        <walk from="-25258502" to="168937986#0"/>
    </person>
    <person id="ped192" depart="506.24" type="ped_pedestrian">
        <walk from="713577963" to="35578557"/>
    </person>
    <person id="ped193" depart="508.88" type="ped_pedestrian">
        <walk from="544327503#0" to="30721662#0"/>
    </person>
    <person id="ped194" depart="511.52" type="ped_pedestrian">
        <walk from="-51167934#4" to="24243107#0"/>
    </person>
    <person id="ped195" depart="514.15" type="ped_pedestrian">
        <walk from="-111251382#2" to="-474362271"/>
    </person>
    <person id="ped196" depart="516.79" type="ped_pedestrian">
        <walk from="169195795#0" to="25258502"/>
    </person>
    <person id="ped197" depart="519.43" type="ped_pedestrian">
        <walk from="340498982#8" to="195401017#3"/>
    </person>
    <person id="ped198" depart="522.06" type="ped_pedestrian">
        <walk from="173296880" to="-4566442"/>
    </person>
    <person id="ped199" depart="524.70" type="ped_pedestrian">
        <walk from="202156991#0" to="544327500"/>
    </person>
    <person id="ped200" depart="527.34" type="ped_pedestrian">
        <walk from="4611712" to="-35557161#3"/>
    </person>
    <person id="ped201" depart="529.97" type="ped_pedestrian">
        <walk from="-23017853" to="23755961#2"/>
    </person>
    <person id="ped202" depart="532.61" type="ped_pedestrian">
        <walk from="328426193#0" to="-751595929#2"/>
    </person>
    <person id="ped203" depart="535.25" type="ped_pedestrian">
        <walk from="4612965" to="4610355#0"/>
    </person>
    <person id="ped204" depart="537.88" type="ped_pedestrian">
        <walk from="35557161#4" to="-4610480"/>
    </person>
    <person id="ped205" depart="540.52" type="ped_pedestrian">
        <walk from="-43376477#1" to="-158023913#5"/>
    </person>
    <person id="ped206" depart="543.16" type="ped_pedestrian">
        <walk from="-4611708#3" to="202156994#0"/>
    </person>
    <person id="ped207" depart="545.79" type="ped_pedestrian">
        <walk from="461526152#0" to="-22954356"/>
    </person>
    <person id="ped208" depart="548.43" type="ped_pedestrian">
        <walk from="15977422#0" to="318915601#0"/>
    </person>
    <person id="ped209" depart="551.07" type="ped_pedestrian">
        <walk from="-43156728#4" to="371927739"/>
    </person>
    <person id="ped210" depart="553.70" type="ped_pedestrian">
        <walk from="22972219#0" to="-4611708#3"/>
    </person>
    <person id="ped211" depart="556.34" type="ped_pedestrian">
        <walk from="340498988#0" to="-112128825#1"/>
    </person>
    <person id="ped212" depart="558.98" type="ped_pedestrian">
        <walk from="4610355#0" to="4610608"/>
    </person>
    <person id="ped213" depart="561.61" type="ped_pedestrian">
        <walk from="-24242882#0" to="168942727#0"/>
    </person>
    <person id="ped214" depart="564.25" type="ped_pedestrian">
        <walk from="-35578576#2" to="753730627#0"/>
    </person>
    <person id="ped215" depart="566.89" type="ped_pedestrian">
        <walk from="23812656#0" to="-188914559"/>
    </person>
    <person id="ped216" depart="569.52" type="ped_pedestrian">
        <walk from="-4611712" to="46140376#0"/>
    </person>
    <person id="ped217" depart="572.16" type="ped_pedestrian">
        <walk from="190447768#1" to="4611714#10"/>
    </person>
    <person id="ped218" depart="574.80" type="ped_pedestrian">
        <walk from="35557143#0" to="83517336#3"/>
    </person>
    <person id="ped219" depart="577.43" type="ped_pedestrian">
        <walk from="289966097" to="750204886"/>
    </person>
    <person id="ped220" depart="580.07" type="ped_pedestrian">
        <walk from="54048863" to="30721660#0"/>
    </person>
    <person id="ped221" depart="582.71" type="ped_pedestrian">
        <walk from="43159545#0" to="23017852#1"/>
    </person>
    <person id="ped222" depart="585.34" type="ped_pedestrian">
        <walk from="4613293#0" to="24243107#0"/>
    </person>
    <person id="ped223" depart="587.98" type="ped_pedestrian">
        <walk from="541763974" to="4588217"/>
    </person>
    <person id="ped224" depart="590.62" type="ped_pedestrian">
        <walk from="202156994#0" to="-4611714#3"/>
    </person>
    <person id="ped225" depart="593.25" type="ped_pedestrian">
        <walk from="-4611710#2" to="328426251#0"/>
    </person>
    <person id="ped226" depart="595.89" type="ped_pedestrian">
        <walk from="4610480" to="23851917#0"/>
    </person>
    <person id="ped227" depart="598.53" type="ped_pedestrian">
        <walk from="312651888#2" to="-4613293#1"/>
    </person>
    <person id="ped228" depart="601.16" type="ped_pedestrian">
        <walk from="-22972473#3" to="-474362271"/>
    </person>
    <person id="ped229" depart="603.80" type="ped_pedestrian">
        <walk from="-4612970#1" to="-66071366#1"/>
    </person>
    <person id="ped230" depart="606.44" type="ped_pedestrian">
        <walk from="24242882#1" to="-28016312#3"/>
    </person>
    <person id="ped231" depart="609.07" type="ped_pedestrian">
        <walk from="-4610610#1" to="370359204#0"/>
    </person>
    <person id="ped232" depart="611.71" type="ped_pedestrian">
        <walk from="15971197#0" to="24243052#0"/>
    </person>
    <person id="ped233" depart="614.35" type="ped_pedestrian">
        <walk from="165415452#0" to="-4396823#0"/>
    </person>
    <person id="ped234" depart="616.98" type="ped_pedestrian">
        <walk from="168937986#0" to="54781811#0"/>