<?xml version="1.0" encoding="UTF-8"?>

<!-- generated on Sun Dec 20 10:39:08 2020 by Eclipse SUMO duarouter Version v1_6_0+1927-b00c2fec16
<configuration xmlns:xsi="http://www.w3.org/2001/XMLSchema-instance" xsi:noNamespaceSchemaLocation="http://sumo.dlr.de/xsd/duarouterConfiguration.xsd">

    <input>
        <net-file value="osm.net.xml"/>
        <route-files value="trips.rou.xml"/>
    </input>

    <output>
        <output-file value="routes.rou.xml"/>
        <alternatives-output value="routes.rou.alt.xml"/>
    </output>

    <time>
        <begin value="0.0"/>
        <end value="4600.0"/>
    </time>

    <report>
        <no-warnings value="true"/>
        <ignore-errors value="true"/>
        <no-step-log value="true"/>
    </report>

</configuration>
-->

<routes xmlns:xsi="http://www.w3.org/2001/XMLSchema-instance" xsi:noNamespaceSchemaLocation="http://sumo.dlr.de/xsd/routes_file.xsd">
    <vehicle id="0" depart="0.00">
        <route edges="560370523 437325048#0 -437325054#2 -24243107#2 -24243107#1 -24243101 492340367#0 24243092#0 35578576#0 153698394#0 153698394#2 -330840125#1 340498982#0 340498982#3 340498982#8 -4610524 66071370 4611713#0 4611713#1 4611714#0 -4611718#1"/>
    </vehicle>
    <vehicle id="1" depart="3.00">
        <route edges="111833185#0 -169999355#2 -461526153 461526152#0 340498982#0 340498982#3 340498982#8 354528932 251884680 54048862#0 831694400 202156994#0 72157174#0 195401006 195401017#3 19002403#0 4613308#0 756306892"/>
    </vehicle>
    <vehicle id="3" depart="7.00">
        <route edges="-202156991#2 23121445#0 541763974 61584187#0 54048863 15971197#0 169195795#0 169195795#2 169195795#7 169195795#8 882389494 340498988#0 169999355#0 -11483007#2 -158023913#5"/>
    </vehicle>
    <vehicle id="4" depart="7.00">
        <route edges="153698390#0 -153698390#1 30720544#0"/>
    </vehicle>
    <vehicle id="5" depart="10.00">
        <route edges="23755950#0 -23755950#4 -66071366#3 4773029#0 28251222#0 169195795#2 169195795#7 114667396#0 -15977422#1 -195411605#1 -339201185 24243107#0 24243107#2 437325054#0 -465398528 -560370523 -437325047#5 437325047#5 560370523 437325048#0"/>
    </vehicle>
    <vehicle id="6" depart="21.00">
        <route edges="-23121445#5 23121445#0 541763974 61584187#0 54048863 15971197#0 169195795#0 -28251222#1 -4773029#2 -66071366#1 -389101365#4 22972473#0 22972473#3 -840229277"/>
    </vehicle>
    <vehicle id="7" depart="22.00">
        <route edges="-7917219#1 374734389#0 541295978#0 -541295974 6228081 -222328410 -465376254 190447768#1 465376256#0 11483007#0 -169999355#2 -461526153 461526152#0 340498982#0 340498982#3 340498982#8 354528932 251884680 54048862#0 831694400 202156994#0 -534588621#1 606078071#0 -751595930 -156364553#1 606078065"/>
    </vehicle>
    <vehicle id="8" depart="28.00">
        <route edges="-35557161#6 -35557161#4 -35557161#3 -35557161#1 -389101365#4 -35557143#4 196850609#0 882389497 194069450#0 461526153 188386313#0"/>
    </vehicle>
    <vehicle id="9" depart="29.00">
        <route edges="72678523#0 195401006 195401017#3 112128419#0 415280722 171826985#0 24913523#0 24913519#0 541763975 202156995#0 541763974 61584187#0 54048863 15971197#0 169195795#0 169195795#2 169195795#7 169195795#8 882389494 340498988#0 169999355#0 -11483007#2 22972195#0 4402228 222328410 -6228081 541295974 153698390#0 427637455"/>
    </vehicle>
    <vehicle id="10" depart="48.00">
        <route edges="4588219#0 -22972473#2 389101365#0 66071366#0 66071366#2 23755950#0 4611696#1 4611696#4 -43156728#4 -755551646#1 -52328295#2 23851917#0 23812656#0 60333309#0 24992424#0 168943640#0 495066404"/>
    </vehicle>
    <vehicle id="11" depart="51.00">
        <route edges="43159545#0 24992424#0 -24992424#2 840860363#1 24992428 81112790#0 23851930 23851919 625843712 753730627#0 4773463#1 541763976 -15973619#15 -15973619#12 -15973619#9 4611718#0 4611718#1 -4611714#1 -4611711#1 -23755961#2 -23755961#1"/>
    </vehicle>
    <vehicle id="12" depart="58.00">
        <route edges="-23813206#2 24990040 415280722 171826985#0 24913523#0 -534588621#1 606078071#0 -751595930 -156364553#1 81112790#0 23851930 23851919 625843712 753730627#0 4773463#1 541763976 120359703"/>
    </vehicle>
    <vehicle id="15" depart="78.00">
        <route edges="-168940071#1 168940071#0 168940071#2 42103020#0 541295978#0"/>
    </vehicle>
    <vehicle id="16" depart="80.00">
        <route edges="-51167934#4 437325047#5 560370523 437325048#0 -437325054#2 -24243107#2 -24243107#1 -24243101 492340367#0 24243092#0 35578576#0 153698394#0 153698394#2 -330840125#1 -66071373#3 -243854725#3 22972473#0 22972473#3 22972473#4 22972470#0"/>
    </vehicle>
    <vehicle id="17" depart="81.00">
        <route edges="316746323#0 168942727#0 55741054 4613293#0 4613293#1"/>
    </vehicle>
    <vehicle id="18" depart="85.00">
        <route edges="25294728 -62363401 77348147 156364570#0 156364570#1 156364556#0 202157002#0 -534588621#1 606078071#0 -751595930 -156364553#1 81112790#0 23851930 23851919 625843712 753730627#0 -173296880 -4610610#2 -4610610#1 -4610610#0"/>
    </vehicle>
    <vehicle id="19" depart="85.00">
        <route edges="-23755950#4 -66071366#3 4773029#0 28251222#0 169195795#2 169195795#7 114667396#0 -15977422#1 -195411605#1 -339201185 24243107#0 24243107#2 437325054#0 -465398528"/>
    </vehicle>
    <vehicle id="20" depart="99.00">
        <route edges="-34848160#2 -465376254 190447768#1 465376256#0 11483007#0 -169999355#2 -461526153 -194069450#2 -882389497 171423001#0 35557143#0 389101365#0 66071366#0 66071366#2 23755950#0 -831860725#2 734578686 15973619#9 15973619#10 66514478"/>
    </vehicle>
    <vehicle id="21" depart="104.00">
        <route edges="-202156991#2 23121445#0 541763974 61584187#0 54048863 15971197#0"/>
    </vehicle>
    <vehicle id="22" depart="110.00">
        <route edges="560370523 437325048#0 -465398528 -560370523 -437325047#5 -437325047#3 4610362#0 4610362#4 30721662#0 23809670#0 -156364570#4 -156364570#0 -77348147 25294728 55741054 19002363#3 24241790#0 -755340907"/>
    </vehicle>
    <vehicle id="23" depart="112.00">
        <route edges="-4611714#10 24509318 -15973619#12 -15973619#9 -15973619#8 831860725#0 4611696#1 54781811#0 43230886 251884680 54048862#0 831694400 202156994#0 72157174#0 195401006 195401017#3 19002403#0 -24993933#4 -713577963 -112128825#0"/>
    </vehicle>
    <vehicle id="24" depart="113.00">
        <route edges="4610610#0 4610610#1 4610610#2 4610610#3 -52328295#2 23851917#0 60333313 82654055#0 24992428 606078065 751595930 61583424#0 534588621#0 24915070#0 4773465#0 490365295#0 -156364570#4 25294729#0 25294729#1"/>
    </vehicle>
    <vehicle id="25" depart="114.00">
        <route edges="309147331#0 344594962 312357351#0 309479676 4611726 82649618 81112790#0 23851930 23851919 625843712 753730627#0 -173296880 -4610610#2 -4610610#1 -4610610#0"/>
    </vehicle>
    <vehicle id="26" depart="114.00">
        <route edges="4610612 -4610612 -4610610#1 -4610610#0"/>
    </vehicle>
    <vehicle id="27" depart="117.00">
        <route edges="24997595#0 -24997595#1 -22972473#6 -22972473#3 -22972473#2 389101365#0 66071366#0 66071366#2 23755950#0 4611696#1 54781811#0 43230886"/>
    </vehicle>
    <vehicle id="29" depart="131.00">
        <route edges="342968607#0 461526153 169999355#0 -11483007#2 -158023913#5"/>
    </vehicle>
    <vehicle id="30" depart="137.00">
        <route edges="61583424#0 534588621#0 24915070#0 24913523#0 24913519#0 541763975 202156995#0 541763974 61584187#0 54048863 15971197#0 169195795#0 -28251222#1 -4773029#2 -66071366#1 -389101365#4 22972473#0 -840229275"/>
    </vehicle>
    <vehicle id="31" depart="139.00">
        <route edges="19002403#0 4613308#0 756306892 112128419#0 415280722 171826985#0 24913523#0 24913519#0 541763975 202156995#0 541763974 61584187#0 54048863 15971197#0 169195795#0 -28251222#1 -4773029#2 -66071366#1 -389101365#4 22972473#0 -840229275"/>
    </vehicle>
    <vehicle id="33" depart="145.00">
        <route edges="43159545#0 24992424#0 -24992424#2 840860363#1 24992428 606078065 751595930 61583424#0 534588621#0 24915070#0 24913523#0 24913519#0 541763975 202156995#0 541763974 61584187#0 54048863 15971197#0 169195795#0 169195795#2 169195795#7 114667396#0 -15977422#1 -195411605#1 -339201185 24243107#0 -4610375"/>
    </vehicle>
    <vehicle id="35" depart="152.00">
        <route edges="4396823#1 -4396823#1 -4396823#0 -465398528 -560370523 -437325047#5 -437325047#3 4610362#0 4610362#4 30721662#0 23809670#0 -156364570#4 -156364570#0 -77348147 25294728 55741054 -19002363#2 -19002363#0 4613292#0 -24993933#4 -369223458#1 -369223458#0 369223460#0"/>
    </vehicle>
    <vehicle id="38" depart="161.00">
        <route edges="4610476#0 24243092#0 35578576#0 153698394#0 153698394#2 -330840125#1 340498982#0 340498982#3 340498982#8 -4610524 66071370 23755950#0 4611696#1 4611696#4 -43156728#4 -755551646#1 -4610610#3 -4610610#2 -4610610#1 -4610610#0"/>
    </vehicle>
    <vehicle id="40" depart="166.00">
        <route edges="122820534#0 340498976#3 -4610480 -168937986#5 169195795#0 340498982#8 354528932 251884680 54048862#0 831694400 202156994#0 72157174#0 195401006 195401017#3 112128419#0 -24990040 23813206#0"/>
    </vehicle>
    <vehicle id="41" depart="174.00">
        <route edges="-427637455 -153698390#1 -541295974 6228081 -222328410 -465376254 190447768#1 465376256#0 11483007#0 -169999355#2 -461526153 461526152#0 340498982#0 340498982#3 340498982#8 354528932 251884680 54048862#0 831694400 202156994#0 72157174#0 195401006 195401017#3 112128419#0 -24990040 23813206#0"/>
    </vehicle>
    <vehicle id="43" depart="186.00">
        <route edges="301167584#0 112128419#0 -24990040 -188914559 -168942727#3 -743631784 -84960595 183415643 30721660#0 30721660#4 437325047#0 437325047#5 560370523 437325048#0 -465398528"/>
    </vehicle>
    <vehicle id="46" depart="188.00">
        <route edges="-19002363#2 -19002363#0 4613292#0 4613308#0 756306892 112128419#0 415280722 171826985#0 24913523#0 72157174#0 195401006 4790825#0"/>
    </vehicle>
    <vehicle id="47" depart="194.00">
        <route edges="44427220#2 -24241762#2 -19002363#10 -19002363#2 -19002363#0 4613292#0 4613308#0 756306892 112128419#0 415280722 171826985#0 24913523#0 24913519#0 541763975 202156995#0 541763974 61584187#0 54048863 15971197#0 169195795#0 -28251222#1 -4773029#2 -66071366#1 35557161#0 35557161#2 -35557161#3"/>
    </vehicle>
    <vehicle id="48" depart="195.00">
        <route edges="-312651888#2 312651888#2 165415452#0 165415464#0 -437325054#2 -24243107#2 -24243107#1 -24243101 492340367#0 24243092#0 35578576#0 153698394#0 153698394#2 -330840125#1 340498982#0 340498982#3 340498982#8 354528932 251884680 54048862#0 541763974 61584187#0 54048863"/>
    </vehicle>
    <vehicle id="49" depart="202.00">
        <route edges="-4610608 -505475202#1 755551646#2 120675240#0 -4611696#3 -23755950#4 -66071366#3 -66071366#1 -389101365#4 -35557143#4 -292429056#5"/>
    </vehicle>
    <vehicle id="50" depart="207.00">
        <route edges="-84960595 183415643 30721660#0 30721660#4 437325047#0 437325047#5 560370523 437325048#0 465398529#0 4396823#1 318915601#0 153692976#0 237209664"/>
    </vehicle>
    <vehicle id="51" depart="208.00">
        <route edges="111833185#0 -169999355#2 -461526153 -194069450#2 -882389497 171423001#0 35557143#0 389101365#0 66071366#0 66071366#2 23755950#0 4611696#1 4611696#4 -43156728#4 -755551646#1 -4610610#3 -4610610#2 -4610610#1 43156537"/>
    </vehicle>
    <vehicle id="52" depart="219.00">
        <route edges="36892597#0 36892597#3 84960597#0 83517332#0 84960595 316746323#0 370359204#0 77348147 156364570#0 156364570#1 156364556#0 202157002#0 -534588621#1 606078071#0 -751595930 -156364553#1 4612963 156364566#0 60333309#0 24992424#0 -82658674#5"/>
    </vehicle>
    <vehicle id="53" depart="220.00">
        <route edges="4588222#0 -22972473#3 -22972473#2 243854725#0 243854725#4 340498982#0 340498982#3 340498982#8 354528932 251884680 54048862#0 831694400 202156994#0 24915070#0 4773465#0 490365295#0 -156364570#4 -156364570#0 -77348147 -387892378 -743631784 46140376#0 -84960597#3 -36892597#3"/>
    </vehicle>
    <vehicle id="54" depart="223.00">
        <route edges="-22972470#1 -22972473#6 -22972473#3 -22972473#2 -35557143#4 196850609#0 882389497 194069450#0 -194069450#2"/>
    </vehicle>
    <vehicle id="56" depart="225.00">
        <route edges="-389101365#4 -35557143#4 196850609#0 882389497 194069450#0 461526153 169999355#0 -111833185#1"/>
    </vehicle>
    <vehicle id="57" depart="226.00">
        <route edges="-24992424#5 -24992424#2 840860363#1 24992428 606078065 751595930 -562707499 -751595928#1 -136571494#4 38208961 120675240#0 -4611696#3 -23755950#4 -66071366#3 -66071366#1 -4611706#1 68647306#0"/>
    </vehicle>
    <vehicle id="58" depart="233.00">
        <route edges="560370523 437325048#0 -465398528 -560370523 -437325047#5 -437325047#3 4610362#0 4610362#4 30721662#0 23809670#0 -156364570#4 -156364570#0 -77348147 -387892378 -743631784 46140376#0 -84960597#3 -36892597#3 -36892597#2 -371927739"/>
    </vehicle>
    <vehicle id="61" depart="241.00">
        <route edges="-165415464#2 165415454#0 -312651888#2 312651888#2 165415452#0 165415464#0 -437325054#2 -24243107#2 168940071#0 168940071#2 42103020#0 541295978#0 -541295974 6228081 -222328410 -465376254 190447768#1 465376256#0 11483007#0 -169999355#2 -461526153 -194069450#2 -882389497 4588217"/>
    </vehicle>
    <vehicle id="62" depart="242.00">
        <route edges="-310176513#2 4612965 82652816 -168943640#4 -24992424#2 840860363#1 24992428 606078065 751595930 61583424#0 534588621#0 24915070#0 24913523#0 24913519#0 541763975 202156995#0 541763974 61584187#0 54048863 15971197#0 169195795#0 340498982#8 -4610524 -43231842#3 4611693#2"/>
    </vehicle>
    <vehicle id="63" depart="252.00">
        <route edges="112128825#0 -268002748 24914141#5 19002403#0 19002357#0 19002363#0 19002363#1 19002363#3 24241762#0"/>
    </vehicle>
    <vehicle id="64" depart="253.00">
        <route edges="23852056#0 44427220#2 -24241762#2 24241790#0 36892597#0 36892597#3 84960597#0 83517332#0 183415643 30721660#0 30721660#4 437325047#0 51167934#0"/>
    </vehicle>
    <vehicle id="65" depart="254.00">
        <route edges="243854725#0 243854725#4 340498982#0 340498982#3 340498982#8 354528932 251884680 54048862#0 831694400 202156994#0 24915070#0 4773465#0 490365295#0 -156364570#4 -156364570#0 -77348147 -387892378 -743631784 46140376#0 -84960597#3 -36892597#3 -36892597#2 -24241790#3"/>
    </vehicle>
    <vehicle id="66" depart="256.00">
        <route edges="4610610#0 4610610#1 4610610#2 4610610#3 -52328295#2 52328295#0 755551647 755551646#2 120675240#0 -4611696#3 -23755950#4 -66071366#3 -66071366#1 -389101365#4 -35557143#4 196850609#0 882389497 194069450#0 461526153 169999355#0 -11483007#2 22972195#0 4402228 222328410 -6228081 541295974 30720544#0 42103020#0 111251382#0"/>
    </vehicle>
    <vehicle id="67" depart="257.00">
        <route edges="-4610610#2 4610610#2 4610610#3 -52328295#2 23851917#0 60333313 82654055#0 24992428 606078065 751595930 751595929#0 194962375#0 128396190#0"/>
    </vehicle>
    <vehicle id="68" depart="260.00">
        <route edges="-24992424#5 -24992424#2 840860363#1 24992428 606078065 751595930 61583424#0 534588621#0 72157174#0 195401006 195401017#3 19002403#0 -24993933#4 -369223458#1 4613299#0 -4613299#1"/>
    </vehicle>
    <vehicle id="69" depart="272.00">
        <route edges="-4611718#1 -4611718#0 -15973619#8 831860725#0 4611696#1 4611696#4 -43156728#4 -755551646#1 -52328295#2 23851917#0 60333313 82654055#0 60333311#0 289966097 4612969#0"/>
    </vehicle>
    <vehicle id="71" depart="279.00">
        <route edges="-4613293#1 -4613293#0 -55741054 -62363401 77348147 156364570#0 25294729#0 25302636#0"/>
    </vehicle>
    <vehicle id="73" depart="281.00">
        <route edges="-47755711#2 47707171#0 -24997595#1 -22972473#6 -22972473#3 -22972473#2 389101365#0 66071366#0 66071366#2 23755950#0 4611696#1 4611696#4 -43156728#4 755551646#2 120675240#0"/>
    </vehicle>
    <vehicle id="75" depart="301.00">
        <route edges="-493008123#1 -73310499#1 -493008124#1 -225400578#2 -437325047#3 4610362#0 4610362#4 30721662#0 23809670#0 156364556#0 202157002#0 -534588621#1 606078071#0 -751595930 -156364553#1"/>
    </vehicle>
    <vehicle id="77" depart="306.00">
        <route edges="30705211#4 328426193#0 52328295#0 755551647 755551646#2 120675240#0 -4611696#3 -23755950#4 -66071366#3 -66071366#1 -389101365#4 -35557143#4 196850609#0 882389497 194069450#0 461526153 169999355#0 -11483007#2 22972195#0 4402228 222328410 -6228081 541295974 153698390#0 -750204886"/>
    </vehicle>
    <vehicle id="78" depart="312.00">
        <route edges="-4611712 4611711#0 -4611713#1 -4611713#0 23755950#0 4611696#1 4611696#4 -43156728#4 -755551646#1 -52328295#2 23851917#0 60333313 82654055#0 60333311#0 289966097 289966281 344594961"/>
    </vehicle>
    <vehicle id="80" depart="332.00">
        <route edges="35578557 22972219#0 4610476#0 24243092#0 35578576#0 153698394#0 153698394#2 -330840125#1 340498982#0 340498982#3 340498982#8 354528932 251884680 54048862#0 831694400 202156994#0 72157174#0 195401006 195401017#3 19002403#0 -24993933#4 -713577963 -268002748 24914141#5"/>
    </vehicle>
    <vehicle id="81" depart="334.00">
        <route edges="38208961 -43156728#4 -755551646#1 -4610610#3 -4610610#2 -4610610#1 -4610610#0"/>
    </vehicle>
    <vehicle id="82" depart="337.00">
        <route edges="4773464#0 -15973619#15 -15973619#12 -15973619#9 -15973619#8 831860725#0 -23755950#4 -66071366#3 -66071366#1 -389101365#4 -35557143#4 196850609#0 882389497 194069450#0 461526153 169999355#0 -11483007#2 22972195#0 4402228 222328410 -6228081 541295974 153698390#0 427637455"/>
    </vehicle>
    <vehicle id="86" depart="355.00">
        <route edges="43159545#0 24992424#0 -24992424#2 840860363#1 24992428 606078065 751595930 61583424#0 534588621#0 72157174#0 195401006 195401017#3 19002403#0 -24993933#4 4613298#0 4613295#1 4613295#2"/>
    </vehicle>
    <vehicle id="87" depart="358.00">
        <route edges="44427220#0 44427220#2 -24241762#2 -19002363#10 -19002363#2 -19002363#0 4613292#0 4613308#0 756306892 112128419#0 415280722 171826985#0 24913523#0 24913519#0 541763975 202156995#0 541763974 61584187#0 54048863 15971197#0 169195795#0 169195795#2 340498982#3"/>
    </vehicle>
    <vehicle id="88" depart="361.00">
        <route edges="301167584#0 112128419#0 415280722 171826985#0 24913523#0 -534588621#1 606078071#0 -751595930 -156364553#1 4612963 156364566#0 60333309#0 24992424#0 -82658674#5 82658674#2"/>
    </vehicle>
    <vehicle id="89" depart="362.00">
        <route edges="750204886 -153698390#1 -541295974 6228081 -222328410 -465376254 190447768#1 465376256#0 11483007#0 -169999355#2 -461526153 -194069450#2 -882389497 171423001#0 35557143#0 389101365#0 66071366#0 66071366#2 23755950#0 4611696#1 4611696#4 -43156728#4 -755551646#1 -52328295#2 -328426193#2 -30705211#6 -30705211#3"/>
    </vehicle>
    <vehicle id="91" depart="376.00">
        <route edges="-24241762#3 -24241762#2 -19002363#10 -55741054 55741054"/>
    </vehicle>
    <vehicle id="92" depart="377.00">
        <route edges="24243107#0 168940071#0 168940071#2 42103020#0 42103021 35269774#0 544327500"/>
    </vehicle>
    <vehicle id="93" depart="381.00">
        <route edges="-43156728#4 -755551646#1 -52328295#2 23851917#0 60333313 82654055#0 24992428 606078065 751595930 61583424#0 534588621#0 24915070#0 4773465#0 490365295#0 -156364570#4 -156364570#0 -77348147 25294728 55741054 4613293#0 4613293#1"/>
    </vehicle>
    <vehicle id="94" depart="387.00">
        <route edges="6227658#0 4610374 168940071#2 42103020#0 541295978#0 -541295974 6228081 -222328410 -465376254 190447768#1 465376256#0 11483007#0 -169999355#2 -461526153 -194069450#2 -882389497 171423001#0 35557143#0 22972473#0"/>
    </vehicle>
    <vehicle id="95" depart="398.00">
        <route edges="750204886 -153698390#1 -541295974 6228081 -222328410 -465376254 190447768#1 465376256#0 11483007#0 -169999355#2 -461526153 -194069450#2 -882389497 171423001#0 35557143#0 389101365#0 66071366#0 66071366#2 23755950#0 4611696#1 4611696#4 -43156728#4 -755551646#1 -52328295#2"/>
    </vehicle>
    <vehicle id="96" depart="398.00">
        <route edges="751595928#0 562707499 61583424#0 534588621#0 24915070#0 4773465#0 490365295#0 -156364570#4 -156364570#0 -77348147 -387892378 -743631784 46140376#0"/>
    </vehicle>
    <vehicle id="98" depart="411.00">
        <route edges="309147331#0 344594962 312357351#0 309479676 4611726 82649618 606078065 751595930 -562707499 -751595928#1 -136571494#4 38208961 120675240#0 -4611696#3 -23755950#4 -66071366#3 -66071366#1 -389101365#4 22972473#0 22972473#3 -840229277"/>
    </vehicle>
    <vehicle id="99" depart="413.00">
        <route edges="371927739 36892597#0 36892597#3 84960597#0 83517332#0 183415643 30721660#0 30721660#4 437325047#0 437325047#5 560370523 437325048#0 465398529#0 4396823#1 -4396823#1"/>
    </vehicle>
    <vehicle id="101" depart="425.00">
        <route edges="-541295974 6228081 -222328410 222328410 -6228081 541295974 30720544#0 42103020#0 42103021 35269774#0 318915602#0 -4396823#1 4396823#1 318915601#0 204032443#0"/>
    </vehicle>
    <vehicle id="102" depart="426.00">
        <route edges="389705411#0 374734389#0 541295978#0 -541295974 6228081 -222328410 -465376254 190447768#1 465376256#0 11483007#0 -169999355#2 -461526153 -194069450#2 -882389497 171423001#0 35557143#0 389101365#0 66071366#0 66071366#2 23755950#0 4611696#1 4611696#4 -43156728#4 -755551646#1 -52328295#2 -328426193#2 -30705211#6 -30705211#3"/>
    </vehicle>
    <vehicle id="104" depart="429.00">
        <route edges="318915601#0 153692976#0 153692976#1 312651888#1 312651888#2 165415452#0 165415464#0 -437325054#2 -24243107#2 -24243107#1 -24243101 492340367#0 24243092#0 35578576#0 153698394#0 153698394#2 -330840125#1 340498982#0 340498982#3 340498982#8 -4610524 66071370 4611713#0 4611713#1 4611714#0 4611714#2 4611714#4 4611714#10"/>
    </vehicle>
    <vehicle id="105" depart="432.00">
        <route edges="454285423#0 -225400578#2 -437325047#3 4610362#0 4610362#4 30721662#0 23809670#0 156364556#0 202157002#0 -534588621#1 606078071#0 -751595930 -156364553#1 4612963 156364566#0 60333309#0 24992424#0 -82658674#5 -4612970#1"/>
    </vehicle>
    <vehicle id="106" depart="432.00">
        <route edges="-111251382#2 42103021 6227658#0 6227658#2 437325054#0 -465398528 -560370523 -437325047#5 -437325047#3 4610362#0 4610362#4 30721662#0 23809670#0"/>
    </vehicle>
    <vehicle id="107" depart="441.00">
        <route edges="751595930 -751595930 -156364553#1 4612963 156364566#0 60333309#0 24992424#0 168943640#0 495066404"/>
    </vehicle>
    <vehicle id="108" depart="447.00">
        <route edges="4612973#0 82658674#2 -24992424#2 840860363#1 24992428 81112790#0 23851930 23851919 625843712 753730627#0 -173296880 4610610#3"/>
    </vehicle>
    <vehicle id="109" depart="453.00">
        <route edges="30705211#0 30705211#4 328426193#0 52328295#0 755551647 755551646#2 120675240#0 -4611696#3 -23755950#4 -66071366#3 -66071366#1 -389101365#4 -35557143#4 196850609#0 882389497 194069450#0 461526153 169999355#0 -11483007#2 22972195#0 4402228 222328410 -6228081 541295974 30720544#0 42103020#0 111251382#0"/>
    </vehicle>
    <vehicle id="110" depart="458.00">
        <route edges="195401006 195401017#3 19002403#0 -24993933#4 -713577963 713577963"/>
    </vehicle>
    <vehicle id="111" depart="461.00">
        <route edges="23852056#0 44427220#2 -24241762#2 -19002363#10 -55741054 -62363401 77348147 156364570#0 156364570#1 156364556#0 202157002#0 -534588621#1 606078071#0 -751595930 -156364553#1 81112790#0 23851930 23851919 625843712 753730627#0 -173296880 -4610610#2 -4610610#1 -4610610#0"/>
    </vehicle>
    <vehicle id="112" depart="463.00">
        <route edges="292429056#0 196850609#0 882389497 194069450#0 461526152#0 340498982#0 340498982#3 340498982#8 354528932 251884680 54048862#0 831694400 202156994#0 -534588621#1 606078071#0 -751595930 -156364553#1 4612963 156364566#0 60333309#0 24992424#0 -82658674#5 -4612970#1"/>
    </vehicle>
    <vehicle id="113" depart="463.00">
        <route edges="-112128825#1 -268002748 24914141#5 19002403#0 19002357#0 19002363#0 19002363#1 19002363#3 24241762#0 24241762#3 24241762#4"/>
    </vehicle>
    <vehicle id="114" depart="468.00">
        <route edges="-47755711#2 47707171#0 -24997595#1 -22972473#6 -22972473#3 -22972473#2 243854725#0 243854725#4 340498982#0 169195795#7 114667396#0 -15977422#1 -195411605#1 -339201185"/>
    </vehicle>
    <vehicle id="115" depart="469.00">
        <route edges="-534588621#1 606078071#0 61583424#0 534588621#0 24915070#0 4773465#0 490365295#0 -156364570#4 -156364570#0 -77348147 -387892378 -743631784 -84960595 84960595"/>
    </vehicle>
    <vehicle id="116" depart="487.00">
        <route edges="-465376254 190447768#1 465376256#0 11483007#0 -169999355#2 -461526153 461526152#0 340498982#0 340498982#3 340498982#8 354528932 251884680 54048862#0 831694400 202156994#0 72157174#0 195401006 195401017#3 19002403#0 -24993933#4 -369223458#1 -369223458#0 369223460#0"/>
    </vehicle>
    <vehicle id="119" depart="498.00">
        <route edges="4612414#0 22954357#0 328426253 328426256#0 -195430954#1 195430954#0"/>
    </vehicle>
    <vehicle id="120" depart="503.00">
        <route edges="-237209664 153692976#1 -312651888#0"/>
    </vehicle>
    <vehicle id="121" depart="503.00">
        <route edges="606078065 751595930 -751595930 -156364553#1 4612963 60333311#0 289966097 289966281 289830064"/>
    </vehicle>
    <vehicle id="122" depart="507.00">
        <route edges="541763976 -15973619#15 -15973619#12 -15973619#9 4611718#0 4611718#1 -4611714#1 -4611711#1 4611712"/>
    </vehicle>
    <vehicle id="123" depart="509.00">
        <route edges="-4613293#1 -4613293#0 19002363#3 24241790#0 36892597#0 36892597#3 84960597#0"/>
    </vehicle>
    <vehicle id="124" depart="509.00">
        <route edges="4611696#1 -4611696#3 -23755950#4 -66071366#3 4773029#0 28251222#0 340498982#8 168937986#0 4610480 -4610480"/>
    </vehicle>
    <vehicle id="125" depart="525.00">
        <route edges="541763975 202156995#0 831694400 202156994#0 24915070#0 4773465#0 490365295#0 -156364570#4 -156364570#0 -77348147 -387892378 -743631784 46140376#0 -84960597#3 -36892597#3 -36892597#2 -24241790#3"/>
    </vehicle>
    <vehicle id="126" depart="528.00">
        <route edges="-23813206#2 24990040 415280722 171826985#0 24913523#0 24913519#0 541763975 202156995#0 541763974 61584187#0 54048863 15971197#0 169195795#0 -28251222#1 -4773029#2 -66071366#1 35557161#0 35557161#2 -35557161#3"/>
    </vehicle>
    <vehicle id="127" depart="532.00">
        <route edges="847103786#0 755340907 36892597#0 36892597#3 84960597#0 83517332#0 84960595 316746323#0 370359204#0 77348147 156364570#0 156364570#1 156364556#0 202157002#0 -534588621#1 606078071#0 -751595930 -156364553#1 81112790#0 23851930 23851919 625843712 -328426193#2 -30705211#6 -30705211#3"/>
    </vehicle>
    <vehicle id="128" depart="533.00">
        <route edges="36689633#0 312651888#2 165415452#0 165415464#0 -437325054#2 -24243107#2 -24243107#1 -24243101 492340367#0 24243092#0 35578576#0 153698394#0 153698394#2 -330840125#1 -66071373#3 24242882#1 68647306#0"/>
    </vehicle>
    <vehicle id="129" depart="534.00">
        <route edges="-4612968#4 840860363#1 24992428 606078065 751595930 -562707499 -751595928#1 -136571494#4 38208961 120675240#0 54781811#0 305153173"/>
    </vehicle>
    <vehicle id="130" depart="534.00">
        <route edges="15971197#0 169195795#0 340498982#8 354528932 251884680 54048862#0 831694400 202156994#0 72157174#0 195401006 195401017#3 19002403#0 -24993933#4 -713577963 713577963"/>
    </vehicle>
    <vehicle id="131" depart="537.00">
        <route edges="330840125#0 882389494 340498988#0 169999355#0 -11483007#2 22972195#0 4402228 222328410 -6228081 541295974 30720544#0 -168940071#4 -168940071#1"/>
    </vehicle>
    <vehicle id="132" depart="539.00">
        <route edges="-15973619#15 -15973619#12 -15973619#9 -15973619#8 831860725#0 -23755950#4 -66071366#3 -66071366#1 -389101365#4 -35557143#4 196850609#0 882389497 194069450#0 -194069450#2"/>
    </vehicle>
    <vehicle id="133" depart="539.00">
        <route edges="4613299#0 -4613299#1 369223458#1 24993933#0 4613308#0 756306892 100405009#0"/>
    </vehicle>
    <vehicle id="134" depart="540.00">
        <route edges="-4611708#1 -35557161#1 66071366#0 66071366#2 23755950#0 4611696#1 54781811#0 43230886 251884680 54048862#0 831694400 202156994#0 24915070#0 4773465#0 490365295#0 -156364570#4 25294729#0 25302636#0"/>
    </vehicle>
    <vehicle id="135" depart="544.00">
        <route edges="4612968#0 -4612968#4 840860363#1 24992428 606078065 751595930 61583424#0 534588621#0 24915070#0 24913523#0 24913519#0 541763975 202156995#0 541763974 61584187#0 54048863 15971197#0 168937986#0 4610600"/>
    </vehicle>
    <vehicle id="138" depart="549.00">
        <route edges="-47755711#2 47707171#0 -24997595#1 -22972473#6 -22972473#3 -22972473#2 243854725#0 243854725#4 340498982#0 340498982#3 340498982#8 354528932 251884680 54048862#0 831694400 202156994#0 72157174#0 195401006 195401017#3 19002403#0 -24993933#4 -369223458#1 4613299#0 -112128825#1"/>
    </vehicle>
    <vehicle id="139" depart="552.00">
        <route edges="454285423#0 -225400578#2 437325047#5 560370523 437325048#0 -437325054#2 -24243107#2 -24243107#1 -24243101 492340367#0 24243092#0 35578576#0 153698394#0 153698394#2 -330840125#1 340498982#0 340498982#3 340498982#8 -4610524 66071370 4611713#0 4611713#1 23017853"/>
    </vehicle>
    <vehicle id="140" depart="554.00">
        <route edges="-427637455 -153698390#1 -541295974 6228081 -222328410 -465376254 190447768#1 465376256#0 11483007#0 -169999355#2 -461526153 -194069450#2 -882389497 171423001#0 35557143#0 389101365#0 66071366#0 66071366#2 23755950#0 4611696#1 4611696#4 -43156728#4 4610607 4610608"/>
    </vehicle>