<?xml version="1.0" encoding="UTF-8"?>

<!-- generated on Sun Dec 20 10:39:08 2020 by Eclipse SUMO duarouter Version v1_6_0+1927-b00c2fec16
<configuration xmlns:xsi="http://www.w3.org/2001/XMLSchema-instance" xsi:noNamespaceSchemaLocation="http://sumo.dlr.de/xsd/duarouterConfiguration.xsd">

    <input>
        <net-file value="osm.net.xml"/>
        <route-files value="trips.rou.xml"/>
    </input>

    <output>
        <output-file value="trips.rou.xml.tmp"/>
        <write-trips value="true"/>
    </output>

    <time>
        <begin value="0.0"/>
        <end value="4600.0"/>
    </time>

    <report>
        <no-warnings value="true"/>
        <ignore-errors value="true"/>
        <no-step-log value="true"/>
    </report>

</configuration>
-->

<routes xmlns:xsi="http://www.w3.org/2001/XMLSchema-instance" xsi:noNamespaceSchemaLocation="http://sumo.dlr.de/xsd/routes_file.xsd">
    <trip id="0" depart="0.00" from="560370523" to="-4611718#1"/>
    <trip id="1" depart="3.00" from="111833185#0" to="756306892"/>
    <trip id="3" depart="7.00" from="-202156991#2" to="-158023913#5"/>
    <trip id="4" depart="7.00" from="153698390#0" to="30720544#0"/>
    <trip id="5" depart="10.00" from="23755950#0" to="437325048#0"/>
    <trip id="6" depart="21.00" from="-23121445#5" to="-840229277"/>
    <trip id="7" depart="22.00" from="-7917219#1" to="606078065"/>
    <trip id="8" depart="28.00" from="-35557161#6" to="188386313#0"/>
    <trip id="9" depart="29.00" from="72678523#0" to="427637455"/>
    <trip id="10" depart="48.00" from="4588219#0" to="495066404"/>
    <trip id="11" depart="51.00" from="43159545#0" to="-23755961#1"/>
    <trip id="12" depart="58.00" from="-23813206#2" to="120359703"/>
    <trip id="15" depart="78.00" from="-168940071#1" to="541295978#0"/>
    <trip id="16" depart="80.00" from="-51167934#4" to="22972470#0"/>
    <trip id="17" depart="81.00" from="316746323#0" to="4613293#1"/>
    <trip id="18" depart="85.00" from="25294728" to="-4610610#0"/>
    <trip id="19" depart="85.00" from="-23755950#4" to="-465398528"/>
    <trip id="20" depart="99.00" from="-34848160#2" to="66514478"/>
    <trip id="21" depart="104.00" from="-202156991#2" to="15971197#0"/>
    <trip id="22" depart="110.00" from="560370523" to="-755340907"/>
    <trip id="23" depart="112.00" from="-4611714#10" to="-112128825#0"/>
    <trip id="24" depart="113.00" from="4610610#0" to="25294729#1"/>
    <trip id="25" depart="114.00" from="309147331#0" to="-4610610#0"/>
    <trip id="26" depart="114.00" from="4610612" to="-4610610#0"/>
    <trip id="27" depart="117.00" from="24997595#0" to="43230886"/>
    <trip id="29" depart="131.00" from="342968607#0" to="-158023913#5"/>
    <trip id="30" depart="137.00" from="61583424#0" to="-840229275"/>
    <trip id="31" depart="139.00" from="19002403#0" to="-840229275"/>
    <trip id="33" depart="145.00" from="43159545#0" to="-4610375"/>
    <trip id="35" depart="152.00" from="4396823#1" to="369223460#0"/>
    <trip id="38" depart="161.00" from="4610476#0" to="-4610610#0"/>
    <trip id="40" depart="166.00" from="122820534#0" to="23813206#0"/>
    <trip id="41" depart="174.00" from="-427637455" to="23813206#0"/>
    <trip id="43" depart="186.00" from="301167584#0" to="-465398528"/>
    <trip id="46" depart="188.00" from="-19002363#2" to="4790825#0"/>
    <trip id="47" depart="194.00" from="44427220#2" to="-35557161#3"/>
    <trip id="48" depart="195.00" from="-312651888#2" to="54048863"/>
    <trip id="49" depart="202.00" from="-4610608" to="-292429056#5"/>
    <trip id="50" depart="207.00" from="-84960595" to="237209664"/>
    <trip id="51" depart="208.00" from="111833185#0" to="43156537"/>
    <trip id="52" depart="219.00" from="36892597#0" to="-82658674#5"/>
    <trip id="53" depart="220.00" from="4588222#0" to="-36892597#3"/>
    <trip id="54" depart="223.00" from="-22972470#1" to="-194069450#2"/>
    <trip id="56" depart="225.00" from="-389101365#4" to="-111833185#1"/>
    <trip id="57" depart="226.00" from="-24992424#5" to="68647306#0"/>
    <trip id="58" depart="233.00" from="560370523" to="-371927739"/>
    <trip id="61" depart="241.00" from="-165415464#2" to="4588217"/>
    <trip id="62" depart="242.00" from="-310176513#2" to="4611693#2"/>
    <trip id="63" depart="252.00" from="112128825#0" to="24241762#0"/>
    <trip id="64" depart="253.00" from="23852056#0" to="51167934#0"/>
    <trip id="65" depart="254.00" from="243854725#0" to="-24241790#3"/>
    <trip id="66" depart="256.00" from="4610610#0" to="111251382#0"/>
    <trip id="67" depart="257.00" from="-4610610#2" to="128396190#0"/>
    <trip id="68" depart="260.00" from="-24992424#5" to="-4613299#1"/>
    <trip id="69" depart="272.00" from="-4611718#1" to="4612969#0"/>
    <trip id="71" depart="279.00" from="-4613293#1" to="25302636#0"/>
    <trip id="73" depart="281.00" from="-47755711#2" to="120675240#0"/>
    <trip id="75" depart="301.00" from="-493008123#1" to="-156364553#1"/>
    <trip id="77" depart="306.00" from="30705211#4" to="-750204886"/>
    <trip id="78" depart="312.00" from="-4611712" to="344594961"/>
    <trip id="80" depart="332.00" from="35578557" to="24914141#5"/>
    <trip id="81" depart="334.00" from="38208961" to="-4610610#0"/>
    <trip id="82" depart="337.00" from="4773464#0" to="427637455"/>
    <trip id="86" depart="355.00" from="43159545#0" to="4613295#2"/>
    <trip id="87" depart="358.00" from="44427220#0" to="340498982#3"/>
    <trip id="88" depart="361.00" from="301167584#0" to="82658674#2"/>
    <trip id="89" depart="362.00" from="750204886" to="-30705211#3"/>
    <trip id="91" depart="376.00" from="-24241762#3" to="55741054"/>
    <trip id="92" depart="377.00" from="24243107#0" to="544327500"/>
    <trip id="93" depart="381.00" from="-43156728#4" to="4613293#1"/>
    <trip id="94" depart="387.00" from="6227658#0" to="22972473#0"/>
    <trip id="95" depart="398.00" from="750204886" to="-52328295#2"/>
    <trip id="96" depart="398.00" from="751595928#0" to="46140376#0"/>
    <trip id="98" depart="411.00" from="309147331#0" to="-840229277"/>
    <trip id="99" depart="413.00" from="371927739" to="-4396823#1"/>
    <trip id="101" depart="425.00" from="-541295974" to="204032443#0"/>
    <trip id="102" depart="426.00" from="389705411#0" to="-30705211#3"/>
    <trip id="104" depart="429.00" from="318915601#0" to="4611714#10"/>
    <trip id="105" depart="432.00" from="454285423#0" to="-4612970#1"/>
    <trip id="106" depart="432.00" from="-111251382#2" to="23809670#0"/>
    <trip id="107" depart="441.00" from="751595930" to="495066404"/>
    <trip id="108" depart="447.00" from="4612973#0" to="4610610#3"/>
    <trip id="109" depart="453.00" from="30705211#0" to="111251382#0"/>
    <trip id="110" depart="458.00" from="195401006" to="713577963"/>
    <trip id="111" depart="461.00" from="23852056#0" to="-4610610#0"/>
    <trip id="112" depart="463.00" from="292429056#0" to="-4612970#1"/>
    <trip id="113" depart="463.00" from="-112128825#1" to="24241762#4"/>
    <trip id="114" depart="468.00" from="-47755711#2" to="-339201185"/>
    <trip id="115" depart="469.00" from="-534588621#1" to="84960595"/>
    <trip id="116" depart="487.00" from="-465376254" to="369223460#0"/>
    <trip id="119" depart="498.00" from="4612414#0" to="195430954#0"/>
    <trip id="120" depart="503.00" from="-237209664" to="-312651888#0"/>
    <trip id="121" depart="503.00" from="606078065" to="289830064"/>
    <trip id="122" depart="507.00" from="541763976" to="4611712"/>
    <trip id="123" depart="509.00" from="-4613293#1" to="84960597#0"/>
    <trip id="124" depart="509.00" from="4611696#1" to="-4610480"/>
    <trip id="125" depart="525.00" from="541763975" to="-24241790#3"/>
    <trip id="126" depart="528.00" from="-23813206#2" to="-35557161#3"/>
    <trip id="127" depart="532.00" from="847103786#0" to="-30705211#3"/>
    <trip id="128" depart="533.00" from="36689633#0" to="68647306#0"/>
    <trip id="129" depart="534.00" from="-4612968#4" to="305153173"/>
    <trip id="130" depart="534.00" from="15971197#0" to="713577963"/>
    <trip id="131" depart="537.00" from="330840125#0" to="-168940071#1"/>
    <trip id="132" depart="539.00" from="-15973619#15" to="-194069450#2"/>
    <trip id="133" depart="539.00" from="4613299#0" to="100405009#0"/>
    <trip id="134" depart="540.00" from="-4611708#1" to="25302636#0"/>
    <trip id="135" depart="544.00" from="4612968#0" to="4610600"/>
    <trip id="138" depart="549.00" from="-47755711#2" to="-112128825#1"/>
    <trip id="139" depart="552.00" from="454285423#0" to="23017853"/>
    <trip id="140" depart="554.00" from="-427637455" to="4610608"/>
    <trip id="142" depart="557.00" from="-495066404" to="4612968#0"/>
    <trip id="143" depart="558.00" from="750204886" to="51167934#0"/>
    <trip id="144" depart="564.00" from="750204886" to="4611714#4"/>
    <trip id="145" depart="570.00" from="28251222#0" to="4790825#0"/>
    <trip id="148" depart="592.00" from="73310499#0" to="4613299#0"/>
    <trip id="150" depart="607.00" from="369223461" to="111251382#0"/>
    <trip id="151" depart="608.00" from="25258502" to="-30705210"/>
    <trip id="152" depart="610.00" from="25294728" to="237209664"/>
    <trip id="153" depart="610.00" from="344594962" to="369223460#0"/>
    <trip id="154" depart="614.00" from="-43156537" to="831694400"/>
    <trip id="155" depart="614.00" from="-243854725#3" to="4612981#0"/>
    <trip id="156" depart="614.00" from="-43156537" to="-35557143#4"/>
    <trip id="158" depart="625.00" from="19801533" to="23813206#0"/>
    <trip id="159" depart="627.00" from="72678523#0" to="15973619#10"/>
    <trip id="160" depart="627.00" from="35269774#0" to="4610476#0"/>
    <trip id="162" depart="629.00" from="24243052#0" to="-243854725#3"/>
    <trip id="163" depart="630.00" from="4610354" to="23813206#0"/>
    <trip id="164" depart="644.00" from="-34848160#2" to="-6227658#1"/>
    <trip id="165" depart="648.00" from="19801533" to="544327500"/>
    <trip id="167" depart="654.00" from="544327503#0" to="22972470#0"/>
    <trip id="168" depart="654.00" from="24243052#0" to="-52328295#2"/>
    <trip id="169" depart="655.00" from="44427220#0" to="-24243107#1"/>
    <trip id="170" depart="657.00" from="753730627#0" to="-750204886"/>
    <trip id="171" depart="666.00" from="493008124#0" to="-168942727#3"/>
    <trip id="172" depart="668.00" from="38208961" to="23813206#0"/>
    <trip id="173" depart="669.00" from="-47755711#2" to="-6227658#3"/>
    <trip id="174" depart="670.00" from="122820534#0" to="-750204886"/>
    <trip id="175" depart="673.00" from="165415452#0" to="-371927739"/>
    <trip id="176" depart="680.00" from="-22972473#3" to="-292429056#5"/>
    <trip id="177" depart="681.00" from="-4613298#1" to="544327500"/>
    <trip id="178" depart="685.00" from="750204886" to="4612968#0"/>
    <trip id="179" depart="694.00" from="72678523#0" to="427637455"/>
    <trip id="180" depart="698.00" from="-25294729#1" to="25302636#0"/>
    <trip id="182" depart="700.00" from="-24990040" to="289966097"/>
    <trip id="183" depart="702.00" from="560370523" to="606078065"/>
    <trip id="185" depart="707.00" from="4588219#0" to="289830064"/>
    <trip id="186" depart="713.00" from="344594962" to="-751595928#1"/>
    <trip id="187" depart="721.00" from="-15973619#12" to="-28251222#1"/>
    <trip id="189" depart="740.00" from="454285423#0" to="4790825#0"/>
    <trip id="190" depart="755.00" from="-35557161#6" to="4613295#1"/>
    <trip id="191" depart="757.00" from="19801533" to="4610608"/>
    <trip id="192" depart="757.00" from="-328426236" to="-195430953"/>
    <trip id="193" depart="765.00" from="4588219#0" to="-35578576#2"/>
    <trip id="194" depart="774.00" from="-24241762#4" to="23813206#0"/>
    <trip id="195" depart="778.00" from="-34848160#2" to="4613292#0"/>
    <trip id="196" depart="785.00" from="136571494#0" to="544327500"/>
    <trip id="197" depart="786.00" from="-35557161#6" to="-112128825#0"/>
    <trip id="198" depart="787.00" from="312651888#0" to="489068253"/>
    <trip id="199" depart="790.00" from="369223458#1" to="77348147"/>
    <trip id="200" depart="796.00" from="-202156991#2" to="4613293#0"/>
    <trip id="201" depart="799.00" from="-4611714#10" to="-43159545#1"/>
    <trip id="204" depart="815.00" from="6227658#0" to="237209664"/>
    <trip id="205" depart="820.00" from="43159545#0" to="-158023913#5"/>
    <trip id="206" depart="820.00" from="312651888#0" to="562707499"/>
    <trip id="207" depart="822.00" from="225400578#0" to="4613299#0"/>
    <trip id="209" depart="844.00" from="19801533" to="4613293#1"/>
    <trip id="210" depart="846.00" from="-168943640#4" to="22972470#0"/>
    <trip id="211" depart="848.00" from="803483098#0" to="-437325054#2"/>
    <trip id="212" depart="851.00" from="111833185#0" to="251884680"/>
    <trip id="213" depart="856.00" from="-35557161#6" to="34848160#0"/>
    <trip id="214" depart="859.00" from="83517336#3" to="34848160#0"/>
    <trip id="215" depart="860.00" from="111833185#0" to="202156995#0"/>
    <trip id="216" depart="860.00" from="112128825#0" to="490365295#0"/>
    <trip id="217" depart="863.00" from="4610610#2" to="22972470#0"/>
    <trip id="218" depart="866.00" from="-55741054" to="-312651888#0"/>
    <trip id="219" depart="867.00" from="35557161#2" to="4588217"/>
    <trip id="220" depart="878.00" from="112128825#0" to="-840229277"/>
    <trip id="221" depart="880.00" from="4588222#0" to="222328410"/>
    <trip id="222" depart="882.00" from="4610362#4" to="22972470#0"/>
    <trip id="223" depart="883.00" from="-24992424#5" to="289830064"/>
    <trip id="225" depart="886.00" from="-427637455" to="-28016312#3"/>
    <trip id="226" depart="889.00" from="158023913#0" to="195401017#3"/>
    <trip id="227" depart="901.00" from="-24509317#2" to="753730627#0"/>
    <trip id="228" depart="907.00" from="-339201177#5" to="66071366#0"/>
    <trip id="229" depart="912.00" from="-24242882#3" to="-4610610#0"/>
    <trip id="230" depart="916.00" from="4612970#0" to="-541295974"/>
    <trip id="231" depart="919.00" from="22972473#3" to="-292429056#5"/>
    <trip id="232" depart="922.00" from="750204886" to="803483098#0"/>
    <trip id="233" depart="922.00" from="389101365#0" to="534588621#0"/>
    <trip id="234" depart="923.00" from="-30705211#6" to="-111833185#1"/>
    <trip id="235" depart="923.00" from="82649618" to="237209664"/>
    <trip id="236" depart="928.00" from="169195795#2" to="-4612970#1"/>
    <trip id="238" depart="941.00" from="111833185#0" to="25294729#1"/>
    <trip id="239" depart="942.00" from="44427220#0" to="427637455"/>
    <trip id="240" depart="943.00" from="84960595" to="25294729#1"/>
    <trip id="241" depart="946.00" from="23809670#0" to="23813206#0"/>
    <trip id="242" depart="950.00" from="4612973#0" to="-292429056#5"/>
    <trip id="243" depart="956.00" from="4588222#0" to="4613299#2"/>
    <trip id="244" depart="957.00" from="-4611714#10" to="-30705211#3"/>
    <trip id="245" depart="958.00" from="68647306#0" to="289966281"/>
    <trip id="246" depart="958.00" from="-24241797#3" to="-30705211#3"/>
    <trip id="247" depart="963.00" from="-24241762#4" to="30721660#0"/>
    <trip id="248" depart="969.00" from="268002745" to="-24243107#1"/>
    <trip id="249" depart="969.00" from="-4610608" to="-158023913#5"/>
    <trip id="250" depart="976.00" from="-4611714#9" to="169999355#0"/>
    <trip id="251" depart="980.00" from="-168940071#4" to="-24997595#1"/>
    <trip id="252" depart="989.00" from="-461526153" to="-62363401"/>
    <trip id="253" depart="993.00" from="19002363#0" to="-840229277"/>
    <trip id="254" depart="996.00" from="-216524084" to="-195430953"/>
    <trip id="255" depart="997.00" from="-4611711#1" to="23017852#1"/>
    <trip id="257" depart="1002.00" from="-427637455" to="4610608"/>
    <trip id="260" depart="1016.00" from="30705211#0" to="544327500"/>
    <trip id="261" depart="1019.00" from="4588222#0" to="-4612970#1"/>
    <trip id="262" depart="1025.00" from="-4611714#10" to="-4611714#3"/>
    <trip id="263" depart="1031.00" from="66071366#0" to="35578559"/>
    <trip id="264" depart="1035.00" from="-147066248#8" to="112128419#0"/>
    <trip id="265" depart="1043.00" from="195430953" to="-22954356"/>
    <trip id="266" depart="1054.00" from="72678523#0" to="-24993933#4"/>
    <trip id="267" depart="1055.00" from="54048863" to="83517332#0"/>
    <trip id="268" depart="1059.00" from="4612973#0" to="-173296880"/>
    <trip id="270" depart="1061.00" from="-51167934#4" to="22972195#0"/>
    <trip id="271" depart="1063.00" from="541763974" to="340498982#0"/>
    <trip id="273" depart="1069.00" from="-495066404" to="344594961"/>
    <trip id="276" depart="1080.00" from="4588222#0" to="-4610610#0"/>
    <trip id="277" depart="1084.00" from="-24993933#4" to="-36892597#2"/>
    <trip id="278" depart="1085.00" from="24243107#2" to="-534588621#1"/>
    <trip id="279" depart="1089.00" from="202817674#0" to="-292429056#5"/>
    <trip id="280" depart="1097.00" from="751595929#0" to="4613293#1"/>
    <trip id="281" depart="1103.00" from="4610375" to="22972470#0"/>
    <trip id="282" depart="1104.00" from="-111251382#2" to="-312651888#0"/>
    <trip id="283" depart="1109.00" from="-51167934#4" to="4612981#0"/>
    <trip id="284" depart="1110.00" from="158023913#0" to="51167934#0"/>
    <trip id="285" depart="1113.00" from="4613298#0" to="-62363401"/>
    <trip id="286" depart="1114.00" from="4396823#1" to="340498976#1"/>
    <trip id="287" depart="1116.00" from="122820534#0" to="-156364553#1"/>
    <trip id="288" depart="1119.00" from="4610610#0" to="4613295#2"/>
    <trip id="289" depart="1122.00" from="30705211#0" to="51167934#0"/>
    <trip id="291" depart="1125.00" from="544327503#0" to="-292429056#5"/>
    <trip id="292" depart="1132.00" from="24509318" to="251884680"/>
    <trip id="293" depart="1134.00" from="-6228081" to="4611712"/>
    <trip id="294" depart="1138.00" from="-4610610#3" to="-43159545#1"/>
    <trip id="295" depart="1142.00" from="-495066404" to="803483098#2"/>
    <trip id="296" depart="1148.00" from="544327503#0" to="4611714#10"/>
    <trip id="297" depart="1154.00" from="-7917219#1" to="489068253"/>
    <trip id="298" depart="1156.00" from="24914141#0" to="237209664"/>
    <trip id="299" depart="1164.00" from="-7917219#1" to="-465376254"/>
    <trip id="300" depart="1166.00" from="-24241762#4" to="15973619#10"/>
    <trip id="302" depart="1166.00" from="4773464#0" to="202817674#0"/>
    <trip id="304" depart="1167.00" from="-43156537" to="-755340907"/>
    <trip id="305" depart="1176.00" from="-369223458#1" to="-312651888#0"/>
    <trip id="306" depart="1179.00" from="194962375#0" to="-4610375"/>
    <trip id="308" depart="1185.00" from="112128825#0" to="4613295#2"/>
    <trip id="309" depart="1196.00" from="44427220#0" to="-292429056#5"/>
    <trip id="310" depart="1197.00" from="-24241762#2" to="4613295#1"/>
    <trip id="311" depart="1205.00" from="-35557161#6" to="24241762#4"/>
    <trip id="312" depart="1205.00" from="-25294729#1" to="23813206#0"/>
    <trip id="313" depart="1208.00" from="156364566#0" to="188386313#0"/>
    <trip id="314" depart="1210.00" from="492340367#0" to="-750204886"/>
    <trip id="315" depart="1211.00" from="-24241762#3" to="4611714#10"/>
    <trip id="316" depart="1215.00" from="147066248#0" to="194962375#0"/>
    <trip id="317" depart="1218.00" from="-156364570#0" to="-840229275"/>
    <trip id="318" depart="1220.00" from="-4610472#1" to="4611713#0"/>
    <trip id="319" depart="1223.00" from="-495066404" to="-4610375"/>
    <trip id="320" depart="1229.00" from="112128825#0" to="4611714#10"/>
    <trip id="321" depart="1230.00" from="330840125#0" to="-750204886"/>
    <trip id="322" depart="1230.00" from="-43376477#1" to="23755961#0"/>
    <trip id="323" depart="1231.00" from="4612973#0" to="15973619#14"/>
    <trip id="324" depart="1240.00" from="-874528353#4" to="-23017852#3"/>
    <trip id="325" depart="1243.00" from="19801533" to="156364556#0"/>
    <trip id="326" depart="1247.00" from="389705411#0" to="169999355#0"/>
    <trip id="327" depart="1247.00" from="-4396823#1" to="4613299#2"/>
    <trip id="328" depart="1254.00" from="171423001#0" to="23813206#0"/>
    <trip id="329" depart="1263.00" from="43231842#0" to="-750204886"/>
    <trip id="330" depart="1266.00" from="4610610#0" to="23813206#0"/>
    <trip id="331" depart="1272.00" from="171826985#0" to="4612969#0"/>
    <trip id="332" depart="1273.00" from="-43376477#1" to="23755961#0"/>
    <trip id="334" depart="1288.00" from="4611713#1" to="-28016312#3"/>
    <trip id="335" depart="1292.00" from="-25302636#3" to="369223458#0"/>
    <trip id="336" depart="1295.00" from="-4613299#2" to="495066404"/>
    <trip id="338" depart="1303.00" from="-25294729#1" to="23813206#0"/>
    <trip id="339" depart="1308.00" from="24241790#0" to="4611714#2"/>
    <trip id="340" depart="1315.00" from="-237209664" to="24915070#0"/>
    <trip id="342" depart="1323.00" from="35578559" to="544327500"/>
    <trip id="343" depart="1323.00" from="158023913#0" to="4611714#10"/>
    <trip id="344" depart="1329.00" from="24913523#0" to="330840125#0"/>
    <trip id="345" depart="1329.00" from="4610480" to="22972473#3"/>
    <trip id="349" depart="1352.00" from="25294728" to="4611712"/>
    <trip id="350" depart="1352.00" from="4588222#0" to="73310499#2"/>
    <trip id="351" depart="1354.00" from="-24241762#4" to="24243107#0"/>
    <trip id="352" depart="1354.00" from="369223461" to="753730627#0"/>
    <trip id="354" depart="1370.00" from="4610351#0" to="66514478"/>
    <trip id="355" depart="1372.00" from="-743631784" to="25302636#0"/>
    <trip id="356" depart="1376.00" from="-52328295#2" to="4612981#0"/>
    <trip id="357" depart="1378.00" from="-4790825#2" to="-188914559"/>
    <trip id="358" depart="1387.00" from="-4610480" to="237209664"/>
    <trip id="359" depart="1390.00" from="-24241762#4" to="23809670#0"/>
    <trip id="360" depart="1391.00" from="-427637455" to="19002363#1"/>
    <trip id="361" depart="1392.00" from="-4611714#10" to="188386313#0"/>
    <trip id="362" depart="1400.00" from="-25294729#1" to="-23755961#1"/>
    <trip id="363" depart="1403.00" from="4613295#0" to="43156537"/>
    <trip id="364" depart="1410.00" from="751595929#0" to="24241762#0"/>
    <trip id="366" depart="1411.00" from="534588621#0" to="344594961"/>
    <trip id="367" depart="1414.00" from="755551647" to="77348147"/>
    <trip id="368" depart="1421.00" from="4773464#1" to="4610362#4"/>
    <trip id="369" depart="1422.00" from="222328410" to="4790825#0"/>
    <trip id="370" depart="1426.00" from="4610375" to="4773464#1"/>
    <trip id="373" depart="1437.00" from="-35557143#4" to="4610600"/>
    <trip id="375" depart="1442.00" from="4610375" to="4613295#2"/>
    <trip id="376" depart="1444.00" from="840860363#1" to="312651888#2"/>
    <trip id="377" depart="1444.00" from="544327503#0" to="831694400"/>
    <trip id="378" depart="1446.00" from="-43156537" to="831694400"/>
    <trip id="379" depart="1458.00" from="-25294729#1" to="4613295#2"/>
    <trip id="380" depart="1463.00" from="122820534#0" to="268002745"/>
    <trip id="381" depart="1473.00" from="4610375" to="4611696#1"/>
    <trip id="382" depart="1488.00" from="122820534#0" to="-755340907"/>
    <trip id="383" depart="1496.00" from="-202156991#2" to="541295974"/>
    <trip id="384" depart="1503.00" from="4610610#0" to="188386313#0"/>
    <trip id="385" depart="1504.00" from="-4610608" to="4611714#2"/>
    <trip id="386" depart="1504.00" from="437325054#0" to="188386313#0"/>
    <trip id="387" depart="1511.00" from="340498988#0" to="4610472#2"/>
    <trip id="388" depart="1512.00" from="415280722" to="-55741054"/>
    <trip id="389" depart="1519.00" from="-4611712" to="52328295#0"/>
    <trip id="390" depart="1521.00" from="44427220#0" to="-755340907"/>
    <trip id="391" depart="1534.00" from="35557143#0" to="-4612970#1"/>
    <trip id="392" depart="1539.00" from="23755961#0" to="4610608"/>
    <trip id="393" depart="1541.00" from="-24241762#4" to="-4610610#0"/>
    <trip id="394" depart="1548.00" from="4610354" to="-312651888#0"/>
    <trip id="395" depart="1552.00" from="-4613299#2" to="188386313#0"/>
    <trip id="396" depart="1556.00" from="-874528353#4" to="66514478"/>
    <trip id="397" depart="1563.00" from="72678523#0" to="43156537"/>
    <trip id="398" depart="1568.00" from="-437325047#3" to="437325048#0"/>
    <trip id="399" depart="1569.00" from="-43376477#1" to="495066404"/>
    <trip id="400" depart="1572.00" from="112128825#1" to="4613293#1"/>
    <trip id="401" depart="1583.00" from="328426193#0" to="-560370523"/>
    <trip id="404" depart="1589.00" from="169999355#0" to="112128418#0"/>
    <trip id="405" depart="1600.00" from="-4611713#1" to="24241762#4"/>
    <trip id="406" depart="1603.00" from="301167584#0" to="51167934#0"/>
    <trip id="408" depart="1611.00" from="-202156991#2" to="-4611711#1"/>
    <trip id="409" depart="1618.00" from="122820534#0" to="34848160#0"/>
    <trip id="410" depart="1622.00" from="4612973#0" to="-560370523"/>
    <trip id="411" depart="1624.00" from="4612970#0" to="-4610610#0"/>
    <trip id="412" depart="1628.00" from="454285423#0" to="-11483007#2"/>
    <trip id="413" depart="1628.00" from="-24992424#5" to="4611712"/>
    <trip id="416" depart="1637.00" from="493008124#0" to="495066404"/>
    <trip id="417" depart="1638.00" from="-831860725#2" to="-122820534#1"/>
    <trip id="418" depart="1644.00" from="4610610#0" to="82658674#2"/>
    <trip id="419" depart="1646.00" from="-4611714#10" to="-30705211#3"/>
    <trip id="420" depart="1648.00" from="370359204#0" to="-4611714#3"/>
    <trip id="422" depart="1660.00" from="4610375" to="-111833185#1"/>
    <trip id="425" depart="1666.00" from="292429056#0" to="312651888#2"/>
    <trip id="427" depart="1672.00" from="-4610472#1" to="-562707499"/>
    <trip id="429" depart="1673.00" from="24997595#0" to="316746323#0"/>
    <trip id="430" depart="1673.00" from="-427637455" to="-147066248#8"/>
    <trip id="431" depart="1674.00" from="222328410" to="4613295#2"/>
    <trip id="432" depart="1674.00" from="-4611718#1" to="4611712"/>
    <trip id="433" depart="1680.00" from="-495066404" to="-292429056#5"/>
    <trip id="434" depart="1682.00" from="309147331#0" to="4611712"/>
    <trip id="436" depart="1682.00" from="4588222#0" to="541763976"/>
    <trip id="437" depart="1689.00" from="-15973619#9" to="82654055#0"/>
    <trip id="438" depart="1696.00" from="-25302636#3" to="4613299#2"/>
    <trip id="439" depart="1697.00" from="389705411#0" to="4610608"/>
    <trip id="440" depart="1699.00" from="-560370523" to="-28016312#3"/>
    <trip id="441" depart="1700.00" from="342968607#0" to="4612981#0"/>
    <trip id="442" depart="1705.00" from="30705211#0" to="111251382#0"/>
    <trip id="443" depart="1710.00" from="541763976" to="-4610612"/>
    <trip id="446" depart="1718.00" from="309147331#0" to="-43159545#1"/>
    <trip id="447" depart="1721.00" from="301167584#0" to="112128418#0"/>
    <trip id="448" depart="1723.00" from="-168937986#5" to="4613295#2"/>
    <trip id="449" depart="1733.00" from="-137630045" to="4611714#2"/>
    <trip id="450" depart="1733.00" from="165415454#0" to="24241762#4"/>
    <trip id="453" depart="1753.00" from="437325048#0" to="66514478"/>
    <trip id="455" depart="1761.00" from="-713577963" to="389101374"/>
    <trip id="456" depart="1770.00" from="753730627#0" to="4612965"/>
    <trip id="458" depart="1777.00" from="-534588621#1" to="304627753#0"/>
    <trip id="459" depart="1779.00" from="-25294729#1" to="-111833185#1"/>
    <trip id="461" depart="1782.00" from="-36892597#2" to="47755711#0"/>
    <trip id="462" depart="1782.00" from="-34848160#2" to="22972473#4"/>
    <trip id="463" depart="1783.00" from="23852056#0" to="4840859#0"/>
    <trip id="464" depart="1786.00" from="-35557161#6" to="30721660#0"/>
    <trip id="465" depart="1794.00" from="4612973#0" to="237209664"/>
    <trip id="466" depart="1794.00" from="312651888#0" to="-156364570#0"/>
    <trip id="467" depart="1796.00" from="-4610524" to="169195795#7"/>
    <trip id="468" depart="1797.00" from="111833185#0" to="625843712"/>
    <trip id="469" depart="1806.00" from="312651888#2" to="4611712"/>
    <trip id="470" depart="1811.00" from="301167584#0" to="-19002363#10"/>
    <trip id="471" depart="1815.00" from="-23121445#5" to="153698394#2"/>
    <trip id="472" depart="1815.00" from="4610362#4" to="-43159545#1"/>
    <trip id="473" depart="1817.00" from="-112128825#1" to="-43159545#1"/>
    <trip id="475" depart="1829.00" from="-23813206#2" to="24509317#0"/>
    <trip id="476" depart="1844.00" from="-82658674#5" to="4611712"/>
    <trip id="477" depart="1845.00" from="342968607#0" to="-222328410"/>
    <trip id="478" depart="1854.00" from="156364556#0" to="23813206#0"/>
    <trip id="479" depart="1857.00" from="371927739" to="4611726"/>
    <trip id="480" depart="1860.00" from="19801533" to="6228081"/>
    <trip id="481" depart="1862.00" from="-24992424#5" to="60333309#0"/>
    <trip id="483" depart="1863.00" from="4611714#0" to="66514478"/>
    <trip id="484" depart="1864.00" from="340498982#0" to="-292429056#5"/>
    <trip id="485" depart="1868.00" from="72678523#0" to="489068253"/>
    <trip id="486" depart="1878.00" from="-4790825#2" to="23121445#0"/>
    <trip id="487" depart="1879.00" from="169999355#0" to="544327500"/>
    <trip id="488" depart="1882.00" from="4611714#4" to="202157002#0"/>
    <trip id="489" depart="1889.00" from="-4790825#2" to="23851930"/>
    <trip id="491" depart="1893.00" from="46140376#0" to="-153698390#1"/>
    <trip id="492" depart="1893.00" from="-35557161#6" to="51167934#0"/>
    <trip id="493" depart="1899.00" from="-4611714#10" to="4610610#1"/>
    <trip id="494" depart="1899.00" from="292429056#0" to="153698394#0"/>
    <trip id="495" depart="1900.00" from="369223461" to="111251382#0"/>
    <trip id="496" depart="1909.00" from="19801533" to="112128418#0"/>