<?xml version="1.0" encoding="UTF-8"?>
<!-- generated on 2020-12-20 10:37:45.303123 by randTrips.py UNKNOWN
  options: -n osm.net.xml <doubleminus>demand-duration 120 <doubleminus>lane-demand-variance 2 <doubleminus>min-distance 2 -b 0 -e 4600 <doubleminus>binomial 100 <doubleminus>fringe-factor 10 <doubleminus>period 4 -o trips.trips.xml
-->
<routes xmlns:xsi="http://www.w3.org/2001/XMLSchema-instance" xsi:noNamespaceSchemaLocation="http://sumo.dlr.de/xsd/routes_file.xsd">
    <trip id="0" depart="11.00" from="4612973#0" to="100405009#0"/>
    <trip id="1" depart="15.00" from="-560370523" to="495066404"/>
    <trip id="2" depart="16.00" from="4588219#0" to="23812656#0"/>
    <trip id="3" depart="27.00" from="-4611714#3" to="4296468"/>
    <trip id="4" depart="33.00" from="44427220#0" to="-22972473#2"/>
    <trip id="5" depart="35.00" from="-111251382#2" to="4610608"/>
    <trip id="6" depart="37.00" from="340498982#8" to="-465398528"/>
    <trip id="7" depart="42.00" from="369223461" to="-4396823#1"/>
    <trip id="8" depart="49.00" from="-4611712" to="-755340907"/>
    <trip id="9" depart="60.00" from="-4610374" to="25302636#0"/>
    <trip id="10" depart="60.00" from="-137630045" to="-4611696#3"/>
    <trip id="11" depart="64.00" from="61583424#0" to="4790825#0"/>
    <trip id="12" depart="65.00" from="309147331#0" to="4613299#2"/>
    <trip id="13" depart="67.00" from="-237209664" to="427637455"/>
    <trip id="14" depart="68.00" from="4610612" to="24243107#0"/>
    <trip id="15" depart="68.00" from="202157002#0" to="-43159545#1"/>
    <trip id="16" depart="77.00" from="-493008123#1" to="111251382#0"/>
    <trip id="17" depart="79.00" from="195430953" to="25302636#0"/>
    <trip id="18" depart="87.00" from="225400578#0" to="112128418#0"/>
    <trip id="19" depart="101.00" from="-25302636#3" to="-36892597#3"/>
    <trip id="20" depart="112.00" from="-4610608" to="-840229275"/>
    <trip id="21" depart="115.00" from="4773464#0" to="4566442"/>
    <trip id="22" depart="116.00" from="-22972470#1" to="24241762#4"/>
    <trip id="23" depart="119.00" from="-495066404" to="-4610610#0"/>
    <trip id="24" depart="127.00" from="30705211#0" to="100405009#0"/>
    <trip id="25" depart="130.00" from="4612970#0" to="-4610610#0"/>
    <trip id="26" depart="133.00" from="369223461" to="100405009#0"/>
    <trip id="27" depart="136.00" from="-874528353#4" to="-4610610#0"/>
    <trip id="28" depart="145.00" from="-4613293#1" to="-755340907"/>
    <trip id="29" depart="152.00" from="369223461" to="-4612414#1"/>
    <trip id="30" depart="167.00" from="-4566442" to="-4612414#1"/>
    <trip id="31" depart="168.00" from="369223461" to="24992424#3"/>
    <trip id="32" depart="171.00" from="43159545#0" to="-195430953"/>
    <trip id="33" depart="172.00" from="-24992424#5" to="-755340907"/>
    <trip id="34" depart="173.00" from="-4613299#2" to="289830064"/>
    <trip id="35" depart="175.00" from="4612970#0" to="289830064"/>
    <trip id="36" depart="178.00" from="22954356" to="-4612414#1"/>
    <trip id="37" depart="186.00" from="22954356" to="-840229277"/>
    <trip id="38" depart="187.00" from="301167584#0" to="237209664"/>
    <trip id="39" depart="193.00" from="369223461" to="-30705211#3"/>
    <trip id="40" depart="210.00" from="-4613293#1" to="-30705211#3"/>
    <trip id="41" depart="211.00" from="369223461" to="289830064"/>
    <trip id="42" depart="212.00" from="72678523#0" to="289830064"/>
    <trip id="43" depart="213.00" from="-43156537" to="-158023913#5"/>
    <trip id="44" depart="215.00" from="-4610608" to="23813206#0"/>
    <trip id="45" depart="215.00" from="-328426236" to="495066404"/>
    <trip id="46" depart="229.00" from="22954356" to="4613293#1"/>
    <trip id="47" depart="233.00" from="4588219#0" to="-4610610#0"/>
    <trip id="48" depart="241.00" from="-495066404" to="24992424#3"/>
    <trip id="49" depart="246.00" from="369223461" to="23813206#0"/>
    <trip id="50" depart="248.00" from="-328426236" to="24992424#3"/>
    <trip id="51" depart="260.00" from="369223461" to="-4612414#1"/>
    <trip id="52" depart="271.00" from="371927739" to="23813206#0"/>
    <trip id="53" depart="275.00" from="-874528353#4" to="-840229277"/>
    <trip id="54" depart="277.00" from="369223461" to="-4610610#0"/>
    <trip id="55" depart="277.00" from="369223461" to="-840229277"/>
    <trip id="56" depart="284.00" from="-328426236" to="-755340907"/>
    <trip id="57" depart="298.00" from="-328426236" to="25294729#1"/>
    <trip id="58" depart="311.00" from="369223461" to="-30705211#3"/>
    <trip id="59" depart="312.00" from="-4613299#2" to="-840229277"/>
    <trip id="60" depart="313.00" from="4612970#0" to="4610608"/>
    <trip id="61" depart="315.00" from="544327503#0" to="111251382#0"/>
    <trip id="62" depart="319.00" from="23852056#0" to="495066404"/>
    <trip id="63" depart="321.00" from="-4613299#2" to="-755340907"/>
    <trip id="64" depart="327.00" from="23852056#0" to="-30705211#3"/>
    <trip id="65" depart="344.00" from="4612414#0" to="-28016312#3"/>
    <trip id="66" depart="344.00" from="750204886" to="-840229277"/>
    <trip id="67" depart="349.00" from="369223461" to="-840229277"/>
    <trip id="68" depart="351.00" from="4612970#0" to="-4612414#1"/>
    <trip id="69" depart="352.00" from="23852056#0" to="4610608"/>
    <trip id="70" depart="352.00" from="-4612422" to="-4612414#1"/>
    <trip id="71" depart="362.00" from="-4611712" to="-4610610#0"/>
    <trip id="72" depart="366.00" from="72678523#0" to="-4612414#1"/>
    <trip id="73" depart="374.00" from="195430953" to="-755340907"/>
    <trip id="74" depart="379.00" from="-328426236" to="-4610610#0"/>
    <trip id="75" depart="380.00" from="-4566442" to="-158023913#5"/>
    <trip id="76" depart="389.00" from="22954356" to="-4610610#0"/>
    <trip id="77" depart="389.00" from="19801533" to="23813206#0"/>
    <trip id="78" depart="396.00" from="72678523#0" to="216524084"/>
    <trip id="79" depart="398.00" from="4610375" to="-292429056#5"/>
    <trip id="80" depart="404.00" from="369223461" to="-4612414#1"/>
    <trip id="81" depart="405.00" from="301167584#0" to="-28016312#3"/>
    <trip id="82" depart="414.00" from="-495066404" to="4613293#1"/>
    <trip id="83" depart="416.00" from="-47755711#2" to="-4612414#1"/>
    <trip id="84" depart="428.00" from="30705211#0" to="-28016312#3"/>
    <trip id="85" depart="429.00" from="-25294729#1" to="-23852056#2"/>
    <trip id="86" depart="430.00" from="-4611712" to="-4612414#1"/>
    <trip id="87" depart="430.00" from="369223461" to="-4610610#0"/>
    <trip id="88" depart="431.00" from="-4612422" to="427637455"/>
    <trip id="89" depart="432.00" from="-328426236" to="-4612414#1"/>
    <trip id="90" depart="434.00" from="72678523#0" to="-4610610#0"/>
    <trip id="91" depart="434.00" from="-4610608" to="237209664"/>
    <trip id="92" depart="436.00" from="4612970#0" to="289830064"/>
    <trip id="93" depart="438.00" from="-4613299#2" to="-4612414#1"/>
    <trip id="94" depart="439.00" from="369223461" to="100405009#0"/>
    <trip id="95" depart="439.00" from="24243052#0" to="-111833185#1"/>
    <trip id="96" depart="440.00" from="-874528353#4" to="-4612414#1"/>
    <trip id="97" depart="444.00" from="369223461" to="-195430953"/>
    <trip id="98" depart="451.00" from="72678523#0" to="237209664"/>
    <trip id="99" depart="459.00" from="369223461" to="25294729#1"/>
    <trip id="100" depart="466.00" from="-202156991#2" to="-840229277"/>
    <trip id="101" depart="467.00" from="369223461" to="-4610610#0"/>
    <trip id="102" depart="468.00" from="43159545#0" to="-28016312#3"/>
    <trip id="103" depart="483.00" from="-34848160#2" to="-158023913#5"/>
    <trip id="104" depart="489.00" from="369223461" to="4613295#2"/>
    <trip id="105" depart="490.00" from="-328426236" to="-840229277"/>
    <trip id="106" depart="490.00" from="369223461" to="-4612414#1"/>
    <trip id="107" depart="490.00" from="4588219#0" to="495066404"/>
    <trip id="108" depart="498.00" from="-328426236" to="-4610610#0"/>
    <trip id="109" depart="502.00" from="-495066404" to="-30705210"/>
    <trip id="110" depart="504.00" from="4612414#0" to="-755340907"/>
    <trip id="111" depart="512.00" from="-328426236" to="544327500"/>
    <trip id="112" depart="515.00" from="-328426236" to="-4612414#1"/>
    <trip id="113" depart="517.00" from="-874528353#4" to="-28016312#3"/>
    <trip id="114" depart="519.00" from="22954356" to="4613295#2"/>
    <trip id="115" depart="519.00" from="-328426236" to="344594961"/>
    <trip id="116" depart="523.00" from="4612970#0" to="-4610610#0"/>
    <trip id="117" depart="528.00" from="-4611712" to="-30705211#3"/>
    <trip id="118" depart="530.00" from="22954356" to="24992424#3"/>
    <trip id="119" depart="533.00" from="-495066404" to="-4612414#1"/>
    <trip id="120" depart="536.00" from="369223461" to="-158023913#5"/>
    <trip id="121" depart="546.00" from="4610354" to="-30705211#3"/>
    <trip id="122" depart="546.00" from="301167584#0" to="-755340907"/>
    <trip id="123" depart="550.00" from="-47755711#2" to="-4612414#1"/>
    <trip id="124" depart="551.00" from="4612970#0" to="-4610610#0"/>
    <trip id="125" depart="552.00" from="23852056#0" to="23813206#0"/>
    <trip id="126" depart="557.00" from="-4566442" to="24992424#3"/>
    <trip id="127" depart="563.00" from="72678523#0" to="24992424#3"/>
    <trip id="128" depart="564.00" from="23852056#0" to="289830064"/>
    <trip id="129" depart="575.00" from="369223461" to="-755340907"/>
    <trip id="130" depart="584.00" from="-4611712" to="465376243"/>
    <trip id="131" depart="586.00" from="-495066404" to="4613295#2"/>
    <trip id="132" depart="590.00" from="23852056#0" to="-4612414#1"/>
    <trip id="133" depart="597.00" from="4612973#0" to="289830064"/>
    <trip id="134" depart="600.00" from="-24992424#5" to="-4612414#1"/>
    <trip id="135" depart="606.00" from="-4610608" to="4611714#10"/>
    <trip id="136" depart="606.00" from="4588219#0" to="4613295#2"/>
    <trip id="137" depart="607.00" from="-4610608" to="-30705211#3"/>
    <trip id="138" depart="607.00" from="-4610608" to="35557161#5"/>
    <trip id="139" depart="608.00" from="4612973#0" to="-755340907"/>
    <trip id="140" depart="609.00" from="369223461" to="-30705211#3"/>
    <trip id="141" depart="611.00" from="-7917219#1" to="4613299#2"/>
    <trip id="142" depart="613.00" from="4588219#0" to="-4610610#0"/>
    <trip id="143" depart="622.00" from="-874528353#4" to="-755340907"/>
    <trip id="144" depart="622.00" from="-4566442" to="188386313#0"/>
    <trip id="145" depart="622.00" from="-202156991#2" to="4612981#0"/>
    <trip id="146" depart="624.00" from="22954356" to="25294729#1"/>
    <trip id="147" depart="625.00" from="-4610608" to="-4612414#1"/>
    <trip id="148" depart="631.00" from="72678523#0" to="-4610610#0"/>
    <trip id="149" depart="633.00" from="72678523#0" to="-755340907"/>
    <trip id="150" depart="638.00" from="-4610608" to="24992424#3"/>
    <trip id="151" depart="649.00" from="369223461" to="344594961"/>
    <trip id="152" depart="650.00" from="369223461" to="-4612414#1"/>
    <trip id="153" depart="651.00" from="-4613299#2" to="-158023913#5"/>
    <trip id="154" depart="652.00" from="-328426236" to="51167934#0"/>
    <trip id="155" depart="652.00" from="-328426236" to="289830064"/>
    <trip id="156" depart="653.00" from="-216524084" to="-4610610#0"/>
    <trip id="157" depart="657.00" from="-328426236" to="23813206#0"/>
    <trip id="158" depart="661.00" from="22954356" to="-755340907"/>
    <trip id="159" depart="666.00" from="-328426236" to="289830064"/>
    <trip id="160" depart="668.00" from="72678523#0" to="-4610610#0"/>
    <trip id="161" depart="670.00" from="-202156991#2" to="-195430953"/>
    <trip id="162" depart="672.00" from="23852056#0" to="-4612414#1"/>
    <trip id="163" depart="674.00" from="-216524084" to="-30705211#3"/>
    <trip id="164" depart="679.00" from="-4611712" to="289830064"/>
    <trip id="165" depart="680.00" from="369223461" to="-28016312#3"/>
    <trip id="166" depart="683.00" from="22954356" to="-4610610#0"/>
    <trip id="167" depart="690.00" from="-4613299#2" to="4613293#1"/>
    <trip id="168" depart="696.00" from="4588219#0" to="-4610610#0"/>
    <trip id="169" depart="696.00" from="158023913#0" to="289830064"/>
    <trip id="170" depart="696.00" from="72678523#0" to="-4610610#0"/>
    <trip id="171" depart="700.00" from="750204886" to="427637455"/>
    <trip id="172" depart="701.00" from="-4566442" to="289830064"/>
    <trip id="173" depart="701.00" from="-495066404" to="344594961"/>
    <trip id="174" depart="703.00" from="-328426236" to="-195430953"/>
    <trip id="175" depart="704.00" from="-328426236" to="-23852056#2"/>
    <trip id="176" depart="709.00" from="22954356" to="-4612414#1"/>
    <trip id="177" depart="711.00" from="23852056#0" to="-4612414#1"/>
    <trip id="178" depart="716.00" from="369223461" to="-4612414#1"/>
    <trip id="179" depart="729.00" from="72678523#0" to="4612422"/>
    <trip id="180" depart="737.00" from="4612970#0" to="-4612414#1"/>
    <trip id="181" depart="738.00" from="4612970#0" to="-30705211#3"/>
    <trip id="182" depart="738.00" from="-4613299#2" to="-4610610#0"/>
    <trip id="183" depart="739.00" from="-4613299#2" to="4588217"/>
    <trip id="184" depart="743.00" from="19801533" to="-30705211#3"/>
    <trip id="185" depart="752.00" from="-4613299#2" to="7917219#0"/>
    <trip id="186" depart="752.00" from="369223461" to="-840229277"/>
    <trip id="187" depart="757.00" from="4612970#0" to="-4610610#0"/>
    <trip id="188" depart="760.00" from="369223461" to="-4612414#1"/>
    <trip id="189" depart="761.00" from="369223461" to="-4610610#0"/>
    <trip id="190" depart="762.00" from="-43156537" to="-4610610#0"/>
    <trip id="191" depart="763.00" from="-4610608" to="47755711#0"/>
    <trip id="192" depart="765.00" from="-328426236" to="-4612414#1"/>
    <trip id="193" depart="766.00" from="-202156991#2" to="-755340907"/>
    <trip id="194" depart="767.00" from="4612414#0" to="-195430953"/>
    <trip id="195" depart="769.00" from="4610354" to="-4612414#1"/>
    <trip id="196" depart="774.00" from="369223461" to="-4610610#0"/>
    <trip id="197" depart="775.00" from="369223461" to="51167934#0"/>
    <trip id="198" depart="778.00" from="4612973#0" to="-755340907"/>
    <trip id="199" depart="782.00" from="-4613299#2" to="-111833185#1"/>
    <trip id="200" depart="800.00" from="371927739" to="23813206#0"/>
    <trip id="201" depart="801.00" from="-4612422" to="4610608"/>
    <trip id="202" depart="805.00" from="43159545#0" to="289830064"/>
    <trip id="203" depart="809.00" from="4612970#0" to="23813206#0"/>
    <trip id="204" depart="811.00" from="369223461" to="-30705211#3"/>
    <trip id="205" depart="813.00" from="72678523#0" to="-755340907"/>
    <trip id="206" depart="821.00" from="-328426236" to="-30705211#3"/>
    <trip id="207" depart="822.00" from="369223461" to="23813206#0"/>
    <trip id="208" depart="824.00" from="309147331#0" to="24992424#3"/>
    <trip id="209" depart="827.00" from="369223461" to="-30705211#3"/>
    <trip id="210" depart="829.00" from="19801533" to="-840229277"/>
    <trip id="211" depart="831.00" from="4588219#0" to="289830064"/>
    <trip id="212" depart="835.00" from="-874528353#4" to="-4612414#1"/>
    <trip id="213" depart="850.00" from="292429056#0" to="24992424#3"/>
    <trip id="214" depart="850.00" from="22954356" to="-30705211#3"/>
    <trip id="215" depart="852.00" from="369223461" to="-30705211#3"/>
    <trip id="216" depart="855.00" from="-4611712" to="-4610610#0"/>
    <trip id="217" depart="860.00" from="369223461" to="-4610610#0"/>
    <trip id="218" depart="868.00" from="-874528353#4" to="-30705211#3"/>
    <trip id="219" depart="872.00" from="-4613299#2" to="-4610610#0"/>
    <trip id="220" depart="873.00" from="369223461" to="544327500"/>
    <trip id="221" depart="879.00" from="369223461" to="43156537"/>
    <trip id="222" depart="881.00" from="369223461" to="289830064"/>
    <trip id="223" depart="889.00" from="-328426236" to="-755340907"/>
    <trip id="224" depart="889.00" from="369223461" to="23813206#0"/>
    <trip id="225" depart="891.00" from="369223461" to="4610608"/>
    <trip id="226" depart="899.00" from="-35557161#6" to="-755340907"/>
    <trip id="227" depart="902.00" from="-4610608" to="188386313#0"/>
    <trip id="228" depart="904.00" from="-874528353#4" to="-158023913#5"/>
    <trip id="229" depart="905.00" from="-43376477#1" to="-840229277"/>
    <trip id="230" depart="908.00" from="369223461" to="23813206#0"/>
    <trip id="231" depart="911.00" from="309147331#0" to="-30705211#3"/>
    <trip id="232" depart="912.00" from="72678523#0" to="289830064"/>
    <trip id="233" depart="914.00" from="-4613299#2" to="23813206#0"/>
    <trip id="234" depart="928.00" from="-328426236" to="4588217"/>
    <trip id="235" depart="931.00" from="-874528353#4" to="-4612414#1"/>
    <trip id="236" depart="941.00" from="22954356" to="120359703"/>
    <trip id="237" depart="961.00" from="369223461" to="-4612414#1"/>
    <trip id="238" depart="980.00" from="4612973#0" to="-4612414#1"/>
    <trip id="239" depart="987.00" from="369223461" to="4613293#1"/>
    <trip id="240" depart="989.00" from="4612970#0" to="-4610610#0"/>
    <trip id="241" depart="993.00" from="369223461" to="-4610610#0"/>
    <trip id="242" depart="993.00" from="43159545#0" to="-755340907"/>
    <trip id="243" depart="995.00" from="43159545#0" to="23813206#0"/>
    <trip id="244" depart="996.00" from="-34848160#2" to="-30705211#3"/>
    <trip id="245" depart="998.00" from="4612970#0" to="23813206#0"/>
    <trip id="246" depart="1005.00" from="-328426236" to="-30705211#3"/>
    <trip id="247" depart="1005.00" from="-202156991#2" to="-4612414#1"/>
    <trip id="248" depart="1007.00" from="-495066404" to="4613295#2"/>
    <trip id="249" depart="1020.00" from="369223461" to="-4612414#1"/>
    <trip id="250" depart="1022.00" from="369223461" to="-30705211#3"/>
    <trip id="251" depart="1044.00" from="4612970#0" to="-4610610#0"/>
    <trip id="252" depart="1051.00" from="369223461" to="-4610610#0"/>
    <trip id="253" depart="1051.00" from="-4613299#2" to="465376243"/>
    <trip id="254" depart="1051.00" from="-202156991#2" to="-28016312#3"/>
    <trip id="255" depart="1061.00" from="4588219#0" to="23813206#0"/>
    <trip id="256" depart="1063.00" from="43159545#0" to="-30705211#3"/>
    <trip id="257" depart="1065.00" from="369223461" to="24241762#4"/>
    <trip id="258" depart="1082.00" from="-874528353#4" to="25294729#1"/>
    <trip id="259" depart="1084.00" from="369223461" to="-437325047#5"/>
    <trip id="260" depart="1087.00" from="-237209664" to="100405009#0"/>
    <trip id="261" depart="1097.00" from="-328426236" to="-30705211#3"/>
    <trip id="262" depart="1099.00" from="-495066404" to="369223460#0"/>
    <trip id="263" depart="1099.00" from="-328426236" to="-28016312#3"/>
    <trip id="264" depart="1099.00" from="72678523#0" to="-4612414#1"/>
    <trip id="265" depart="1106.00" from="-4566442" to="-4612414#1"/>
    <trip id="266" depart="1107.00" from="-4610608" to="-4612414#1"/>
    <trip id="267" depart="1109.00" from="72678523#0" to="51167934#0"/>
    <trip id="268" depart="1117.00" from="301167584#0" to="-755340907"/>
    <trip id="269" depart="1126.00" from="-328426236" to="-30705211#3"/>
    <trip id="270" depart="1130.00" from="43159545#0" to="43156537"/>
    <trip id="271" depart="1131.00" from="4612973#0" to="188386313#0"/>
    <trip id="272" depart="1135.00" from="-202156991#2" to="-4612414#1"/>
    <trip id="273" depart="1136.00" from="72678523#0" to="289830064"/>
    <trip id="274" depart="1140.00" from="-43156537" to="289830064"/>
    <trip id="275" depart="1140.00" from="-328426236" to="-840229277"/>
    <trip id="276" depart="1142.00" from="-874528353#4" to="-4610610#0"/>
    <trip id="277" depart="1143.00" from="-24992424#5" to="237209664"/>
    <trip id="278" depart="1143.00" from="-874528353#4" to="-30705211#3"/>
    <trip id="279" depart="1147.00" from="72678523#0" to="-30705211#3"/>
    <trip id="280" depart="1151.00" from="-202156991#2" to="24992424#3"/>
    <trip id="281" depart="1152.00" from="369223461" to="-840229277"/>
    <trip id="282" depart="1158.00" from="4612973#0" to="7917219#0"/>
    <trip id="283" depart="1163.00" from="-495066404" to="23813206#0"/>
    <trip id="284" depart="1165.00" from="22954356" to="-4612414#1"/>
    <trip id="285" depart="1165.00" from="369223461" to="-30705211#3"/>
    <trip id="286" depart="1165.00" from="-202156991#2" to="4613293#1"/>
    <trip id="287" depart="1168.00" from="369223461" to="4610608"/>
    <trip id="288" depart="1168.00" from="-495066404" to="237209664"/>
    <trip id="289" depart="1173.00" from="-4610608" to="-28016312#3"/>
    <trip id="290" depart="1179.00" from="4612970#0" to="112128418#0"/>
    <trip id="291" depart="1181.00" from="-4613299#2" to="-4610610#0"/>
    <trip id="292" depart="1185.00" from="4612414#0" to="-30705211#3"/>
    <trip id="293" depart="1189.00" from="23852056#0" to="-30705211#3"/>
    <trip id="294" depart="1198.00" from="195430953" to="4613293#1"/>
    <trip id="295" depart="1202.00" from="-4610608" to="100405009#0"/>
    <trip id="296" depart="1204.00" from="4612970#0" to="-4610610#0"/>
    <trip id="297" depart="1204.00" from="-4613299#2" to="495066404"/>
    <trip id="298" depart="1209.00" from="-4613299#2" to="-4612414#1"/>
    <trip id="299" depart="1215.00" from="4612970#0" to="-30705211#3"/>
    <trip id="300" depart="1216.00" from="-4613299#2" to="-30705211#3"/>
    <trip id="301" depart="1216.00" from="-51167934#4" to="-28016312#3"/>
    <trip id="302" depart="1226.00" from="24243052#0" to="-30705211#3"/>
    <trip id="303" depart="1242.00" from="23852056#0" to="-28016312#3"/>
    <trip id="304" depart="1242.00" from="4612970#0" to="-30705211#3"/>
    <trip id="305" depart="1244.00" from="-34848160#2" to="-30705211#3"/>
    <trip id="306" depart="1245.00" from="-24992424#5" to="-30705211#3"/>
    <trip id="307" depart="1251.00" from="19801533" to="202156991#0"/>
    <trip id="308" depart="1256.00" from="-4610608" to="-30705211#3"/>
    <trip id="309" depart="1258.00" from="19801533" to="-4612414#1"/>
    <trip id="310" depart="1258.00" from="369223461" to="-111833185#1"/>
    <trip id="311" depart="1268.00" from="-43376477#1" to="-4610610#0"/>
    <trip id="312" depart="1276.00" from="-4613299#2" to="-4610610#0"/>
    <trip id="313" depart="1290.00" from="-24992424#5" to="-755340907"/>
    <trip id="314" depart="1296.00" from="-328426236" to="-755340907"/>
    <trip id="315" depart="1296.00" from="369223461" to="-30705210"/>
    <trip id="316" depart="1301.00" from="19801533" to="4588217"/>
    <trip id="317" depart="1306.00" from="-4566442" to="-30705211#3"/>
    <trip id="318" depart="1310.00" from="-4613299#2" to="465376243"/>
    <trip id="319" depart="1311.00" from="369223461" to="-195430953"/>
    <trip id="320" depart="1311.00" from="-495066404" to="-30705211#3"/>
    <trip id="321" depart="1317.00" from="-4613299#2" to="-30705211#3"/>
    <trip id="322" depart="1325.00" from="-874528353#4" to="4612981#0"/>
    <trip id="323" depart="1326.00" from="-4613293#1" to="369223460#0"/>
    <trip id="324" depart="1329.00" from="454285423#0" to="-195430953"/>
    <trip id="325" depart="1330.00" from="-328426236" to="-840229277"/>
    <trip id="326" depart="1330.00" from="4588222#0" to="-28016312#3"/>
    <trip id="327" depart="1331.00" from="-328426236" to="-4610610#0"/>
    <trip id="328" depart="1332.00" from="4588219#0" to="-755340907"/>
    <trip id="329" depart="1345.00" from="-4610608" to="-28016312#3"/>
    <trip id="330" depart="1347.00" from="-4566442" to="4588217"/>
    <trip id="331" depart="1347.00" from="4612970#0" to="-840229277"/>
    <trip id="332" depart="1360.00" from="-4613299#2" to="289830064"/>
    <trip id="333" depart="1366.00" from="-328426236" to="-840229275"/>
    <trip id="334" depart="1377.00" from="4588219#0" to="-28016312#3"/>
    <trip id="335" depart="1381.00" from="369223461" to="24992424#3"/>
    <trip id="336" depart="1383.00" from="369223461" to="-28016312#3"/>
    <trip id="337" depart="1390.00" from="-874528353#4" to="24992424#3"/>
    <trip id="338" depart="1397.00" from="-328426236" to="-4610610#0"/>
    <trip id="339" depart="1401.00" from="72678523#0" to="427637455"/>
    <trip id="340" depart="1407.00" from="369223461" to="24992424#3"/>
    <trip id="341" depart="1416.00" from="-4613293#1" to="23813206#0"/>
    <trip id="342" depart="1432.00" from="72678523#0" to="-158023913#5"/>
    <trip id="343" depart="1432.00" from="-4610608" to="-30705211#3"/>
    <trip id="344" depart="1436.00" from="369223461" to="23813206#0"/>
    <trip id="345" depart="1438.00" from="-25302636#3" to="4566442"/>
    <trip id="346" depart="1438.00" from="-4613299#2" to="100405009#0"/>
    <trip id="347" depart="1446.00" from="4612973#0" to="-840229277"/>
    <trip id="348" depart="1448.00" from="72678523#0" to="-4612414#1"/>
    <trip id="349" depart="1451.00" from="369223461" to="4612981#0"/>
    <trip id="350" depart="1471.00" from="4588219#0" to="-4612414#1"/>
    <trip id="351" depart="1475.00" from="369223461" to="-28016312#3"/>
    <trip id="352" depart="1478.00" from="301167584#0" to="-4610610#0"/>
    <trip id="353" depart="1493.00" from="369223461" to="-4612414#1"/>
    <trip id="354" depart="1493.00" from="-4566442" to="-195430953"/>
    <trip id="355" depart="1506.00" from="-4610608" to="-4610610#0"/>
    <trip id="356" depart="1514.00" from="-43376477#1" to="4613293#1"/>
    <trip id="357" depart="1518.00" from="-4612422" to="-158023913#5"/>
    <trip id="358" depart="1519.00" from="-4566442" to="-840229277"/>
    <trip id="359" depart="1520.00" from="23852056#0" to="289830064"/>
    <trip id="360" depart="1520.00" from="-328426236" to="120359703"/>
    <trip id="361" depart="1521.00" from="369223461" to="-4612414#1"/>
    <trip id="362" depart="1525.00" from="-874528353#4" to="43156537"/>
    <trip id="363" depart="1525.00" from="-4613299#2" to="-4612414#1"/>
    <trip id="364" depart="1528.00" from="-4566442" to="24992424#3"/>
    <trip id="365" depart="1533.00" from="369223461" to="-30705211#3"/>
    <trip id="366" depart="1547.00" from="4612414#0" to="-30705211#3"/>
    <trip id="367" depart="1550.00" from="-4610608" to="47755711#0"/>
    <trip id="368" depart="1565.00" from="4610354" to="-4610610#0"/>
    <trip id="369" depart="1567.00" from="369223461" to="-30705211#3"/>
    <trip id="370" depart="1567.00" from="22954356" to="4613293#1"/>
    <trip id="371" depart="1574.00" from="-328426236" to="-840229277"/>
    <trip id="372" depart="1578.00" from="369223461" to="-4612414#1"/>
    <trip id="373" depart="1578.00" from="-328426236" to="427637455"/>
    <trip id="374" depart="1580.00" from="369223461" to="-4610610#0"/>
    <trip id="375" depart="1580.00" from="369223461" to="-28016312#3"/>
    <trip id="376" depart="1581.00" from="44427220#0" to="4613293#1"/>
    <trip id="377" depart="1582.00" from="369223461" to="-4610610#0"/>
    <trip id="378" depart="1587.00" from="-4613299#2" to="120359703"/>
    <trip id="379" depart="1588.00" from="122820534#0" to="237209664"/>
    <trip id="380" depart="1593.00" from="369223461" to="-30705211#3"/>
    <trip id="381" depart="1603.00" from="4588219#0" to="-30705211#3"/>
    <trip id="382" depart="1605.00" from="369223461" to="-43159545#1"/>
    <trip id="383" depart="1612.00" from="-328426236" to="-4612414#1"/>
    <trip id="384" depart="1616.00" from="-4613299#2" to="47755711#0"/>
    <trip id="385" depart="1621.00" from="23852056#0" to="-28016312#3"/>
    <trip id="386" depart="1621.00" from="-4566442" to="-371927739"/>
    <trip id="387" depart="1623.00" from="122820534#0" to="-4612414#1"/>
    <trip id="388" depart="1630.00" from="369223461" to="-4612414#1"/>
    <trip id="389" depart="1632.00" from="301167584#0" to="-4612414#1"/>
    <trip id="390" depart="1635.00" from="72678523#0" to="-112128825#0"/>
    <trip id="391" depart="1639.00" from="-874528353#4" to="23813206#0"/>
    <trip id="392" depart="1641.00" from="4612414#0" to="-30705210"/>
    <trip id="393" depart="1654.00" from="369223461" to="-840229277"/>
    <trip id="394" depart="1657.00" from="-34848160#2" to="-755340907"/>
    <trip id="395" depart="1657.00" from="301167584#0" to="-4612414#1"/>
    <trip id="396" depart="1672.00" from="-328426236" to="-158023913#5"/>
    <trip id="397" depart="1678.00" from="-25302636#3" to="-4610610#0"/>
    <trip id="398" depart="1678.00" from="22954356" to="-755340907"/>
    <trip id="399" depart="1683.00" from="4612970#0" to="25294729#1"/>
    <trip id="400" depart="1685.00" from="-202156991#2" to="-28016312#3"/>
    <trip id="401" depart="1690.00" from="369223461" to="-4612414#1"/>
    <trip id="402" depart="1690.00" from="369223461" to="-4610610#0"/>
    <trip id="403" depart="1710.00" from="-4613299#2" to="-840229277"/>
    <trip id="404" depart="1714.00" from="369223461" to="-755340907"/>
    <trip id="405" depart="1717.00" from="4588219#0" to="-4612414#1"/>
    <trip id="406" depart="1722.00" from="72678523#0" to="-4612414#1"/>
    <trip id="407" depart="1727.00" from="-23813206#2" to="-755340907"/>
    <trip id="408" depart="1730.00" from="4610375" to="289830064"/>
    <trip id="409" depart="1733.00" from="4610354" to="-30705211#3"/>
    <trip id="410" depart="1734.00" from="-4613293#1" to="-30705211#3"/>
    <trip id="411" depart="1736.00" from="-4613293#1" to="-28016312#3"/>
    <trip id="412" depart="1737.00" from="-4613293#1" to="-30705211#3"/>
    <trip id="413" depart="1746.00" from="4588219#0" to="4612981#0"/>
    <trip id="414" depart="1750.00" from="-328426236" to="-4612414#1"/>
    <trip id="415" depart="1752.00" from="369223461" to="-30705211#3"/>
    <trip id="416" depart="1765.00" from="-4613293#1" to="-755340907"/>