<?xml version="1.0" encoding="UTF-8"?>

<!-- generated on Wed Nov 18 08:44:25 2020 by Eclipse SUMO netgenerate Version v1_7_0+0686-1a9aa4abeb
<configuration xmlns:xsi="http://www.w3.org/2001/XMLSchema-instance" xsi:noNamespaceSchemaLocation="http://sumo.dlr.de/xsd/netgenerateConfiguration.xsd">

    <random_network>
        <rand value="true"/>
        <rand.iterations value="9"/>
        <rand.max-distance value="200"/>
        <rand.min-distance value="100"/>
        <rand.random-lanenumber value="true"/>
    </random_network>

    <output>
        <output-file value="sumo_nets/32/myNet.net.xml"/>
    </output>

    <building_defaults>
        <default.lanenumber value="2"/>
        <default-junction-type value="traffic_light"/>
    </building_defaults>

    <junctions>
        <no-turnarounds value="true"/>
    </junctions>

    <random_number>
        <seed value="32"/>
    </random_number>

</configuration>
-->

<net version="1.6" junctionCornerDetail="5" limitTurnSpeed="5.50" xmlns:xsi="http://www.w3.org/2001/XMLSchema-instance" xsi:noNamespaceSchemaLocation="http://sumo.dlr.de/xsd/net_file.xsd">

    <location netOffset="303.53,195.50" convBoundary="0.00,0.00,603.45,380.72" origBoundary="-303.53,-195.50,299.92,185.22" projParameter="!"/>

    <edge id=":1_0" function="internal">
        <lane id=":1_0_0" index="0" speed="7.07" length="9.01" shape="310.25,203.31 307.92,202.73 305.83,202.95 303.98,203.95 302.37,205.74"/>
    </edge>
    <edge id=":1_1" function="internal">
        <lane id=":1_1_0" index="0" speed="13.89" length="20.73" shape="310.25,203.31 304.17,200.41 299.52,197.48 295.73,194.92 292.24,193.13"/>
    </edge>
    <edge id=":1_2" function="internal">
        <lane id=":1_2_0" index="0" speed="10.50" length="4.89" shape="311.43,200.33 307.28,198.02 307.18,197.92"/>
    </edge>
    <edge id=":1_12" function="internal">
        <lane id=":1_12_0" index="0" speed="10.50" length="13.56" shape="307.18,197.92 304.35,194.83 302.65,190.76 302.18,185.82"/>
    </edge>
    <edge id=":1_3" function="internal">
        <lane id=":1_3_0" index="0" speed="8.77" length="12.66" shape="305.38,185.90 305.85,188.35 307.41,190.58 310.05,192.59 313.77,194.37"/>
    </edge>
    <edge id=":1_4" function="internal">
        <lane id=":1_4_0" index="0" speed="13.89" length="19.21" shape="305.38,185.90 305.19,189.73 304.50,193.86 302.84,198.53 299.73,203.93"/>
    </edge>
    <edge id=":1_5" function="internal">
        <lane id=":1_5_0" index="0" speed="8.21" length="18.69" shape="305.38,185.90 304.44,190.80 301.94,193.64 297.87,194.41 292.24,193.13"/>
    </edge>
    <edge id=":1_6" function="internal">
        <lane id=":1_6_0" index="0" speed="6.75" length="12.21" shape="293.32,190.12 297.13,191.02 299.87,190.61 301.55,188.87 302.18,185.82"/>
    </edge>
    <edge id=":1_7" function="internal">
        <lane id=":1_7_0" index="0" speed="13.89" length="20.58" shape="293.32,190.12 312.60,197.35"/>
    </edge>
    <edge id=":1_8" function="internal">
        <lane id=":1_8_0" index="0" speed="8.34" length="18.50" shape="293.32,190.12 298.48,192.70 301.27,195.86 301.69,199.61 299.73,203.93"/>
    </edge>
    <edge id=":1_9" function="internal">
        <lane id=":1_9_0" index="0" speed="6.07" length="9.19" shape="294.44,200.33 295.61,197.95 295.64,195.96 294.51,194.35 292.24,193.13"/>
    </edge>
    <edge id=":1_10" function="internal">
        <lane id=":1_10_0" index="0" speed="13.89" length="16.69" shape="294.44,200.33 297.58,195.90 300.00,192.40 301.57,189.24 302.18,185.82"/>
    </edge>
    <edge id=":1_11" function="internal">
        <lane id=":1_11_0" index="0" speed="9.71" length="17.74" shape="297.08,202.13 300.24,198.61 303.89,196.64 308.00,196.22 312.60,197.35"/>
    </edge>
    <edge id=":2_0" function="internal">
        <lane id=":2_0_0" index="0" speed="13.89" length="22.44" shape="484.84,258.62 482.06,261.73 479.19,266.00 475.78,271.06 471.44,276.58"/>
    </edge>
    <edge id=":2_1" function="internal">
        <lane id=":2_1_0" index="0" speed="12.44" length="6.40" shape="484.84,258.62 480.51,261.26 479.21,261.56"/>
    </edge>
    <edge id=":2_6" function="internal">
        <lane id=":2_6_0" index="0" speed="12.44" length="15.87" shape="479.21,261.56 475.55,262.42 469.95,262.08 463.72,260.24"/>
    </edge>
    <edge id=":2_2" function="internal">
        <lane id=":2_2_0" index="0" speed="11.03" length="17.38" shape="466.06,254.29 471.95,256.31 476.70,257.30 480.31,257.26 482.77,256.17"/>
    </edge>
    <edge id=":2_3" function="internal">
        <lane id=":2_3_0" index="0" speed="8.86" length="22.35" shape="464.89,257.27 470.52,260.46 473.09,264.39 472.60,269.06 469.04,274.47"/>
    </edge>
    <edge id=":2_4" function="internal">
        <lane id=":2_4_0" index="0" speed="5.89" length="9.11" shape="464.24,270.23 465.69,268.03 465.89,266.12 464.84,264.52 462.54,263.22"/>
    </edge>
    <edge id=":2_5" function="internal">
        <lane id=":2_5_0" index="0" speed="13.89" length="22.86" shape="466.64,272.35 471.41,267.11 475.75,262.66 479.57,259.01 482.77,256.17"/>
    </edge>
    <edge id=":4_0" function="internal">
        <lane id=":4_0_0" index="0" speed="8.18" length="15.36" shape="171.71,162.72 169.02,157.72 166.37,154.51 163.77,153.11 161.23,153.51"/>
    </edge>
    <edge id=":4_1" function="internal">
        <lane id=":4_1_0" index="0" speed="8.22" length="23.98" shape="174.62,161.38 172.38,154.40 173.46,150.38 177.87,149.33 185.60,151.24"/>
    </edge>
    <edge id=":4_2" function="internal">
        <lane id=":4_2_0" index="0" speed="5.48" length="9.72" shape="184.51,154.25 181.50,153.53 179.81,154.03 179.46,155.75 180.43,158.70"/>
    </edge>
    <edge id=":4_3" function="internal">
        <lane id=":4_3_0" index="0" speed="13.89" length="23.92" shape="184.51,154.25 177.61,152.23 171.43,151.44 165.97,151.87 161.23,153.51"/>
    </edge>
    <edge id=":4_4" function="internal">
        <lane id=":4_4_0" index="0" speed="13.89" length="26.54" shape="159.76,150.67 165.13,148.77 171.22,148.24 178.04,149.06 185.60,151.24"/>
    </edge>
    <edge id=":4_5" function="internal">
        <lane id=":4_5_0" index="0" speed="9.89" length="9.41" shape="159.76,150.67 164.95,149.15 168.85,150.04"/>
    </edge>
    <edge id=":4_6" function="internal">
        <lane id=":4_6_0" index="0" speed="9.89" length="13.56" shape="168.85,150.04 169.63,150.21 173.83,153.84 177.52,160.04"/>
    </edge>

    <edge id="-17" from="16" to="1" priority="-1">
        <lane id="-17_0" index="0" speed="13.89" length="94.77" shape="241.08,278.65 294.44,200.33"/>
        <lane id="-17_1" index="1" speed="13.89" length="94.77" shape="243.72,280.45 297.08,202.13"/>
    </edge>
    <edge id="-19" from="18" to="2" priority="-1">
        <lane id="-19_0" index="0" speed="13.89" length="156.73" shape="604.48,157.38 484.84,258.62"/>
    </edge>
    <edge id="-27" from="26" to="2" priority="-1">
        <lane id="-27_0" index="0" speed="13.89" length="143.05" shape="369.64,377.55 464.24,270.23"/>
        <lane id="-27_1" index="1" speed="13.89" length="143.05" shape="372.04,379.66 466.64,272.35"/>
    </edge>
    <edge id="-29" from="28" to="4" priority="-1">
        <lane id="-29_0" index="0" speed="13.89" length="180.55" shape="-0.73,233.36 159.76,150.67"/>
    </edge>
    <edge id="-3" from="2" to="1" priority="-1">
        <lane id="-3_0" index="0" speed="13.89" length="163.65" shape="462.54,263.22 310.25,203.31"/>
        <lane id="-3_1" index="1" speed="13.89" length="163.65" shape="463.72,260.24 311.43,200.33"/>
    </edge>
    <edge id="-35" from="34" to="4" priority="-1">
        <lane id="-35_0" index="0" speed="13.89" length="185.13" shape="249.25,330.83 171.71,162.72"/>
        <lane id="-35_1" index="1" speed="13.89" length="185.13" shape="252.16,329.49 174.62,161.38"/>
    </edge>
    <edge id="-5" from="4" to="1" priority="-1">
        <lane id="-5_0" index="0" speed="13.89" length="114.53" shape="185.60,151.24 293.32,190.12"/>
    </edge>
    <edge id="-7" from="6" to="1" priority="-1">
        <lane id="-7_0" index="0" speed="13.89" length="185.92" shape="310.04,0.04 305.38,185.90"/>
    </edge>
    <edge id="17" from="1" to="16" priority="-1">
        <lane id="17_0" index="0" speed="13.89" length="94.77" shape="302.37,205.74 249.01,284.05"/>
        <lane id="17_1" index="1" speed="13.89" length="94.77" shape="299.73,203.93 246.37,282.25"/>
    </edge>
    <edge id="19" from="2" to="18" priority="-1">
        <lane id="19_0" index="0" speed="13.89" length="156.73" shape="482.77,256.17 602.42,154.94"/>
    </edge>
    <edge id="27" from="2" to="26" priority="-1">
        <lane id="27_0" index="0" speed="13.89" length="143.05" shape="471.44,276.58 376.84,383.89"/>
        <lane id="27_1" index="1" speed="13.89" length="143.05" shape="469.04,274.47 374.44,381.78"/>
    </edge>
    <edge id="29" from="4" to="28" priority="-1">
        <lane id="29_0" index="0" speed="13.89" length="180.55" shape="161.23,153.51 0.73,236.20"/>
    </edge>
    <edge id="3" from="1" to="2" priority="-1">
        <lane id="3_0" index="0" speed="13.89" length="163.65" shape="313.77,194.37 466.06,254.29"/>
        <lane id="3_1" index="1" speed="13.89" length="163.65" shape="312.60,197.35 464.89,257.27"/>
    </edge>
    <edge id="35" from="4" to="34" priority="-1">
        <lane id="35_0" index="0" speed="13.89" length="185.13" shape="180.43,158.70 257.97,326.81"/>
        <lane id="35_1" index="1" speed="13.89" length="185.13" shape="177.52,160.04 255.07,328.15"/>
    </edge>
    <edge id="5" from="1" to="4" priority="-1">
        <lane id="5_0" index="0" speed="13.89" length="114.53" shape="292.24,193.13 184.51,154.25"/>
    </edge>
    <edge id="7" from="1" to="6" priority="-1">
        <lane id="7_0" index="0" speed="13.89" length="185.92" shape="302.18,185.82 306.84,-0.04"/>
    </edge>

    <tlLogic id="1" type="static" programID="0" offset="0">
        <phase duration="18" state="GGGGrrrrrrrr"/>
        <phase duration="3"  state="yyyyrrrrrrrr"/>
        <phase duration="20" state="rrrGGGGrrrrr"/>
        <phase duration="3"  state="rrryyyyrrrrr"/>
        <phase duration="20" state="GrrrrrrrrGGG"/>
        <phase duration="3"  state="yrrrrrrrryyy"/>
        <phase duration="20" state="rrrrrrGGGGrr"/>
        <phase duration="3"  state="rrrrrryyyyrr"/>
    </tlLogic>
    <tlLogic id="2" type="static" programID="0" offset="0">
        <phase duration="42" state="GrGGGr"/>
        <phase duration="3"  state="yryyyr"/>
        <phase duration="42" state="GgrrGG"/>
        <phase duration="3"  state="yyrryy"/>
    </tlLogic>
    <tlLogic id="4" type="static" programID="0" offset="0">
        <phase duration="38" state="rrGGGg"/>
        <phase duration="3"  state="rryyyg"/>
        <phase duration="6"  state="rrrrGG"/>
        <phase duration="3"  state="rrrryy"/>
        <phase duration="37" state="GGGrrr"/>
        <phase duration="3"  state="yyyrrr"/>
    </tlLogic>

    <junction id="1" type="traffic_light" x="303.53" y="195.50" incLanes="-3_0 -3_1 -7_0 -5_0 -17_0 -17_1" intLanes=":1_0_0 :1_1_0 :1_12_0 :1_3_0 :1_4_0 :1_5_0 :1_6_0 :1_7_0 :1_8_0 :1_9_0 :1_10_0 :1_11_0" shape="309.67,204.79 314.35,192.88 312.07,191.87 310.21,190.80 308.77,189.68 307.75,188.49 307.15,187.25 306.97,185.94 300.58,185.78 299.77,188.41 298.83,189.09 297.54,189.35 295.88,189.19 293.87,188.61 291.70,194.63 293.53,195.77 293.93,196.51 294.00,197.37 293.73,198.34 293.12,199.43 303.69,206.64 305.36,204.96 306.31,204.52 307.35,204.35 308.47,204.44">
        <request index="0"  response="000000000000" foes="000000000000" cont="0"/>
        <request index="1"  response="111000000000" foes="111100110000" cont="0"/>
        <request index="2"  response="110000000000" foes="110011110000" cont="1"/>
        <request index="3"  response="000000000000" foes="000000000000" cont="0"/>
        <request index="4"  response="100000000110" foes="100110000110" cont="0"/>
        <request index="5"  response="011000000110" foes="011110000110" cont="0"/>
        <request index="6"  response="010000000100" foes="010000000100" cont="0"/>
        <request index="7"  response="110000110100" foes="110000110100" cont="0"/>
        <request index="8"  response="110000110010" foes="110000110010" cont="0"/>
        <request index="9"  response="000000000000" foes="000000100010" cont="0"/>
        <request index="10" response="000000000100" foes="000111100110" cont="0"/>
        <request index="11" response="000000000000" foes="000110010110" cont="0"/>
    </junction>
    <junction id="16" type="dead_end" x="245.04" y="281.35" incLanes="17_0 17_1" intLanes="" shape="245.04,281.35 250.33,284.96 245.04,281.35"/>
    <junction id="18" type="dead_end" x="603.45" y="156.16" incLanes="19_0" intLanes="" shape="603.45,156.16 601.38,153.72 603.45,156.16"/>
    <junction id="2" type="traffic_light" x="476.52" y="263.56" incLanes="-19_0 3_0 3_1 -27_0 -27_1" intLanes=":2_0_0 :2_6_0 :2_2_0 :2_3_0 :2_4_0 :2_5_0" shape="485.87,259.84 481.74,254.95 478.70,255.86 476.44,255.71 473.67,255.14 470.41,254.18 466.64,252.80 461.96,264.71 463.73,265.86 464.09,266.56 464.09,267.35 463.74,268.22 463.04,269.18 472.64,277.64 475.58,273.93 477.45,270.92 478.83,268.31 480.31,265.79 482.46,263.07">
        <request index="0" response="000000" foes="000000" cont="0"/>
        <request index="1" response="101000" foes="101000" cont="1"/>
        <request index="2" response="000000" foes="100000" cont="0"/>
        <request index="3" response="000010" foes="100010" cont="0"/>
        <request index="4" response="000000" foes="000000" cont="0"/>
        <request index="5" response="001100" foes="001110" cont="0"/>
    </junction>
    <junction id="26" type="dead_end" x="373.24" y="380.72" incLanes="27_0 27_1" intLanes="" shape="373.24,380.72 378.04,384.95 373.24,380.72"/>
    <junction id="28" type="dead_end" x="0.00" y="234.78" incLanes="29_0" intLanes="" shape="0.00,234.78 1.47,237.63 0.00,234.78"/>
    <junction id="34" type="dead_end" x="253.61" y="328.82" incLanes="35_0 35_1" intLanes="" shape="253.61,328.82 259.43,326.14 253.61,328.82"/>
    <junction id="4" type="traffic_light" x="169.87" y="147.26" incLanes="-35_0 -35_1 5_0 -29_0" intLanes=":4_0_0 :4_1_0 :4_2_0 :4_3_0 :4_4_0 :4_6_0" shape="170.26,163.39 181.88,158.03 181.37,156.16 181.57,155.64 182.07,155.40 182.87,155.44 183.97,155.75 186.14,149.73 180.81,148.06 175.80,147.03 171.12,146.63 166.76,146.87 162.73,147.74 159.03,149.25 161.96,154.93 164.46,155.06 165.81,156.13 167.23,157.88 168.71,160.30">
        <request index="0" response="000000" foes="001000" cont="0"/>
        <request index="1" response="100000" foes="111000" cont="0"/>
        <request index="2" response="000000" foes="000000" cont="0"/>
        <request index="3" response="000011" foes="100011" cont="0"/>
        <request index="4" response="000010" foes="000010" cont="0"/>
        <request index="5" response="001010" foes="001010" cont="1"/>
    </junction>
    <junction id="6" type="dead_end" x="308.44" y="0.00" incLanes="7_0" intLanes="" shape="308.44,0.00 305.24,-0.08 308.44,0.00"/>

    <junction id=":1_12_0" type="internal" x="307.18" y="197.92" incLanes=":1_2_0 -17_1" intLanes=":1_4_0 :1_5_0 :1_6_0 :1_7_0 :1_10_0 :1_11_0"/>
    <junction id=":2_6_0" type="internal" x="479.21" y="261.56" incLanes=":2_1_0 -27_1" intLanes=":2_3_0 :2_5_0"/>
    <junction id=":4_6_0" type="internal" x="168.85" y="150.04" incLanes=":4_5_0 5_0" intLanes=":4_1_0 :4_3_0"/>

    <connection from="-17" to="5" fromLane="0" toLane="0" via=":1_9_0" tl="1" linkIndex="9" dir="r" state="O"/>
    <connection from="-17" to="7" fromLane="0" toLane="0" via=":1_10_0" tl="1" linkIndex="10" dir="s" state="O"/>
    <connection from="-17" to="3" fromLane="1" toLane="1" via=":1_11_0" tl="1" linkIndex="11" dir="l" state="O"/>
    <connection from="-19" to="27" fromLane="0" toLane="0" via=":2_0_0" tl="2" linkIndex="0" dir="s" state="O"/>
    <connection from="-19" to="-3" fromLane="0" toLane="1" via=":2_1_0" tl="2" linkIndex="1" dir="l" state="o"/>
    <connection from="-27" to="-3" fromLane="0" toLane="0" via=":2_4_0" tl="2" linkIndex="4" dir="r" state="O"/>
    <connection from="-27" to="19" fromLane="1" toLane="0" via=":2_5_0" tl="2" linkIndex="5" dir="s" state="o"/>
    <connection from="-29" to="-5" fromLane="0" toLane="0" via=":4_4_0" tl="4" linkIndex="4" dir="L" state="o"/>
    <connection from="-29" to="35" fromLane="0" toLane="1" via=":4_5_0" tl="4" linkIndex="5" dir="l" state="o"/>
    <connection from="-3" to="17" fromLane="0" toLane="0" via=":1_0_0" tl="1" linkIndex="0" dir="r" state="O"/>
    <connection from="-3" to="5" fromLane="0" toLane="0" via=":1_1_0" tl="1" linkIndex="1" dir="s" state="o"/>
    <connection from="-3" to="7" fromLane="1" toLane="0" via=":1_2_0" tl="1" linkIndex="2" dir="l" state="o"/>
    <connection from="-35" to="29" fromLane="0" toLane="0" via=":4_0_0" tl="4" linkIndex="0" dir="r" state="O"/>
    <connection from="-35" to="-5" fromLane="1" toLane="0" via=":4_1_0" tl="4" linkIndex="1" dir="l" state="O"/>
    <connection from="-5" to="7" fromLane="0" toLane="0" via=":1_6_0" tl="1" linkIndex="6" dir="r" state="o"/>
    <connection from="-5" to="3" fromLane="0" toLane="1" via=":1_7_0" tl="1" linkIndex="7" dir="s" state="o"/>
    <connection from="-5" to="17" fromLane="0" toLane="1" via=":1_8_0" tl="1" linkIndex="8" dir="l" state="o"/>
    <connection from="-7" to="3" fromLane="0" toLane="0" via=":1_3_0" tl="1" linkIndex="3" dir="r" state="O"/>
    <connection from="-7" to="17" fromLane="0" toLane="1" via=":1_4_0" tl="1" linkIndex="4" dir="s" state="o"/>
    <connection from="-7" to="5" fromLane="0" toLane="0" via=":1_5_0" tl="1" linkIndex="5" dir="l" state="o"/>
    <connection from="3" to="19" fromLane="0" toLane="0" via=":2_2_0" tl="2" linkIndex="2" dir="r" state="O"/>
    <connection from="3" to="27" fromLane="1" toLane="1" via=":2_3_0" tl="2" linkIndex="3" dir="l" state="O"/>
    <connection from="5" to="35" fromLane="0" toLane="0" via=":4_2_0" tl="4" linkIndex="2" dir="r" state="O"/>
    <connection from="5" to="29" fromLane="0" toLane="0" via=":4_3_0" tl="4" linkIndex="3" dir="R" state="o"/>

    <connection from=":1_0" to="17" fromLane="0" toLane="0" dir="r" state="M"/>
    <connection from=":1_1" to="5" fromLane="0" toLane="0" dir="s" state="M"/>
    <connection from=":1_2" to="7" fromLane="0" toLane="0" via=":1_12_0" dir="l" state="m"/>
    <connection from=":1_12" to="7" fromLane="0" toLane="0" dir="l" state="M"/>
    <connection from=":1_3" to="3" fromLane="0" toLane="0" dir="r" state="M"/>
    <connection from=":1_4" to="17" fromLane="0" toLane="1" dir="s" state="M"/>
    <connection from=":1_5" to="5" fromLane="0" toLane="0" dir="l" state="M"/>
    <connection from=":1_6" to="7" fromLane="0" toLane="0" dir="r" state="M"/>
    <connection from=":1_7" to="3" fromLane="0" toLane="1" dir="s" state="M"/>
    <connection from=":1_8" to="17" fromLane="0" toLane="1" dir="l" state="M"/>
    <connection from=":1_9" to="5" fromLane="0" toLane="0" dir="r" state="M"/>
    <connection from=":1_10" to="7" fromLane="0" toLane="0" dir="s" state="M"/>
    <connection from=":1_11" to="3" fromLane="0" toLane="1" dir="l" state="M"/>
    <connection from=":2_0" to="27" fromLane="0" toLane="0" dir="s" state="M"/>
    <connection from=":2_1" to="-3" fromLane="0" toLane="1" via=":2_6_0" dir="l" state="m"/>
    <connection from=":2_6" to="-3" fromLane="0" toLane="1" dir="l" state="M"/>
    <connection from=":2_2" to="19" fromLane="0" toLane="0" dir="r" state="M"/>
    <connection from=":2_3" to="27" fromLane="0" toLane="1" dir="l" state="M"/>
    <connection from=":2_4" to="-3" fromLane="0" toLane="0" dir="r" state="M"/>
    <connection from=":2_5" to="19" fromLane="0" toLane="0" dir="s" state="M"/>
    <connection from=":4_0" to="29" fromLane="0" toLane="0" dir="r" state="M"/>
    <connection from=":4_1" to="-5" fromLane="0" toLane="0" dir="l" state="M"/>
    <connection from=":4_2" to="35" fromLane="0" toLane="0" dir="r" state="M"/>
    <connection from=":4_3" to="29" fromLane="0" toLane="0" dir="R" state="M"/>
    <connection from=":4_4" to="-5" fromLane="0" toLane="0" dir="L" state="M"/>
    <connection from=":4_5" to="35" fromLane="0" toLane="1" via=":4_6_0" dir="l" state="m"/>
    <connection from=":4_6" to="35" fromLane="0" toLane="1" dir="l" state="M"/>

</net>
