<?xml version="1.0" encoding="UTF-8"?>

<!-- generated on Wed Nov 18 08:44:28 2020 by Eclipse SUMO duarouter Version v1_7_0+0686-1a9aa4abeb
<configuration xmlns:xsi="http://www.w3.org/2001/XMLSchema-instance" xsi:noNamespaceSchemaLocation="http://sumo.dlr.de/xsd/duarouterConfiguration.xsd">

    <input>
        <net-file value="sumo_nets/32/myNet.net.xml"/>
        <route-files value="sumo_nets/32/trips.rou.xml"/>
    </input>

    <output>
        <output-file value="sumo_nets/32/trips.trips.xml"/>
        <alternatives-output value="sumo_nets/32/trips.trips.alt.xml"/>
    </output>

    <time>
        <begin value="0.0"/>
        <end value="500.0"/>
    </time>

    <report>
        <no-warnings value="true"/>
        <ignore-errors value="true"/>
        <no-step-log value="true"/>
    </report>

</configuration>
-->

<routes xmlns:xsi="http://www.w3.org/2001/XMLSchema-instance" xsi:noNamespaceSchemaLocation="http://sumo.dlr.de/xsd/routes_file.xsd">
    <vehicle id="0" depart="0.00">
        <route edges="-17 3 19"/>
    </vehicle>
    <vehicle id="1" depart="7.00">
        <route edges="5 35"/>
    </vehicle>
    <vehicle id="2" depart="11.00">
        <route edges="-29 -5 17"/>
    </vehicle>
    <vehicle id="3" depart="21.00">
        <route edges="-27 -3 5 35"/>
    </vehicle>
    <vehicle id="4" depart="23.00">
        <route edges="-35 -5 17"/>
    </vehicle>
    <vehicle id="5" depart="27.00">
        <route edges="-7 3 27"/>
    </vehicle>
    <vehicle id="6" depart="33.00">
        <route edges="-29 35"/>
    </vehicle>
    <vehicle id="7" depart="36.00">
        <route edges="-7 3 19"/>
    </vehicle>
    <vehicle id="8" depart="37.00">
        <route edges="-27 -3 7"/>
    </vehicle>
    <vehicle id="9" depart="41.00">
        <route edges="3 27"/>
    </vehicle>
    <vehicle id="11" depart="43.00">
        <route edges="-7 5 35"/>
    </vehicle>
    <vehicle id="12" depart="47.00">
        <route edges="-7 3 27"/>
    </vehicle>
    <vehicle id="14" depart="47.00">
        <route edges="-27 -3 5 35"/>
    </vehicle>
    <vehicle id="15" depart="48.00">
        <route edges="-17 5 35"/>
    </vehicle>
    <vehicle id="16" depart="49.00">
        <route edges="-7 17"/>
    </vehicle>
    <vehicle id="17" depart="49.00">
        <route edges="-19 -3 5 35"/>
    </vehicle>
    <vehicle id="18" depart="57.00">
        <route edges="-27 -3 5 35"/>
    </vehicle>
    <vehicle id="20" depart="66.00">
        <route edges="-29 -5 17"/>
    </vehicle>
    <vehicle id="21" depart="70.00">
        <route edges="-29 -5 3 27"/>
    </vehicle>
    <vehicle id="22" depart="71.00">
        <route edges="-29 -5 7"/>
    </vehicle>
    <vehicle id="23" depart="78.00">
        <route edges="-17 5 29"/>
    </vehicle>
    <vehicle id="24" depart="79.00">
        <route edges="-27 -3 17"/>
    </vehicle>
    <vehicle id="25" depart="80.00">
        <route edges="-29 -5 3 27"/>
    </vehicle>
    <vehicle id="26" depart="82.00">
        <route edges="-19 27"/>
    </vehicle>
    <vehicle id="27" depart="85.00">
        <route edges="-19 -3 5 35"/>
    </vehicle>
    <vehicle id="30" depart="94.00">
        <route edges="-7 3 19"/>
    </vehicle>
    <vehicle id="31" depart="101.00">
        <route edges="-19 -3 5 35"/>
    </vehicle>
    <vehicle id="32" depart="103.00">
        <route edges="-17 3 19"/>
    </vehicle>
    <vehicle id="33" depart="106.00">
        <route edges="-29 -5 3 27"/>
    </vehicle>
    <vehicle id="34" depart="108.00">
        <route edges="-35 -5 17"/>
    </vehicle>
    <vehicle id="35" depart="112.00">
        <route edges="-7 3 27"/>
    </vehicle>
    <vehicle id="36" depart="112.00">
        <route edges="-29 -5 17"/>
    </vehicle>
    <vehicle id="38" depart="119.00">
        <route edges="-17 5 29"/>
    </vehicle>
    <vehicle id="39" depart="120.00">
        <route edges="-35 -5 3 19"/>
    </vehicle>
    <vehicle id="40" depart="123.00">
        <route edges="-17 3 27"/>
    </vehicle>
    <vehicle id="41" depart="126.00">
        <route edges="-17 7"/>
    </vehicle>
    <vehicle id="42" depart="128.00">
        <route edges="-17 7"/>
    </vehicle>
    <vehicle id="43" depart="131.00">
        <route edges="-29 -5 17"/>
    </vehicle>
    <vehicle id="44" depart="133.00">
        <route edges="-19 -3 7"/>
    </vehicle>
    <vehicle id="45" depart="140.00">
        <route edges="-17 5 29"/>
    </vehicle>
    <vehicle id="46" depart="141.00">
        <route edges="-17 3 19"/>
    </vehicle>
    <vehicle id="47" depart="143.00">
        <route edges="-29 -5 17"/>
    </vehicle>
    <vehicle id="48" depart="150.00">
        <route edges="-29 -5 17"/>
    </vehicle>
    <vehicle id="49" depart="153.00">
        <route edges="-29 -5 17"/>
    </vehicle>
    <vehicle id="50" depart="155.00">
        <route edges="-17 7"/>
    </vehicle>
    <vehicle id="51" depart="156.00">
        <route edges="-29 -5 7"/>
    </vehicle>
    <vehicle id="52" depart="156.00">
        <route edges="-17 3 19"/>
    </vehicle>
    <vehicle id="53" depart="162.00">
        <route edges="-29 -5 17"/>
    </vehicle>
    <vehicle id="54" depart="163.00">
        <route edges="-35 -5 17"/>
    </vehicle>
    <vehicle id="55" depart="166.00">
        <route edges="-29 -5 3 19"/>
    </vehicle>
    <vehicle id="56" depart="167.00">
        <route edges="-29 -5 7"/>
    </vehicle>
    <vehicle id="57" depart="169.00">
        <route edges="-29 35"/>
    </vehicle>
    <vehicle id="58" depart="169.00">
        <route edges="-29 -5 17"/>
    </vehicle>
    <vehicle id="59" depart="173.00">
        <route edges="-17 3 27"/>
    </vehicle>
    <vehicle id="60" depart="179.00">
        <route edges="-29 -5 17"/>
    </vehicle>
    <vehicle id="61" depart="184.00">
        <route edges="-17 3 19"/>
    </vehicle>
    <vehicle id="62" depart="186.00">
        <route edges="-17 7"/>
    </vehicle>
    <vehicle id="63" depart="186.00">
        <route edges="-29 -5 7"/>
    </vehicle>
    <vehicle id="64" depart="186.00">
        <route edges="-19 -3 17"/>
    </vehicle>
    <vehicle id="65" depart="190.00">
        <route edges="-29 -5 3 27"/>
    </vehicle>
    <vehicle id="66" depart="190.00">
        <route edges="-17 3 19"/>
    </vehicle>
    <vehicle id="67" depart="192.00">
        <route edges="-17 7"/>
    </vehicle>
    <vehicle id="68" depart="192.00">
        <route edges="-17 7"/>
    </vehicle>
    <vehicle id="69" depart="193.00">
        <route edges="-29 -5 17"/>
    </vehicle>
    <vehicle id="70" depart="199.00">
        <route edges="-17 7"/>
    </vehicle>
    <vehicle id="71" depart="203.00">
        <route edges="-19 -3 17"/>
    </vehicle>
    <vehicle id="72" depart="210.00">
        <route edges="-17 7"/>
    </vehicle>
    <vehicle id="73" depart="213.00">
        <route edges="-29 -5 7"/>
    </vehicle>
    <vehicle id="74" depart="215.00">
        <route edges="-29 -5 7"/>
    </vehicle>
    <vehicle id="75" depart="216.00">
        <route edges="-17 7"/>
    </vehicle>
    <vehicle id="76" depart="219.00">
        <route edges="-19 -3 7"/>
    </vehicle>
    <vehicle id="77" depart="222.00">
        <route edges="-35 -5 17"/>
    </vehicle>
    <vehicle id="78" depart="225.00">
        <route edges="-17 3 27"/>
    </vehicle>
    <vehicle id="79" depart="227.00">
        <route edges="-7 3 19"/>
    </vehicle>
    <vehicle id="80" depart="232.00">
        <route edges="-35 -5 7"/>
    </vehicle>
    <vehicle id="81" depart="237.00">
        <route edges="-35 -5 7"/>
    </vehicle>
    <vehicle id="82" depart="246.00">
        <route edges="-17 7"/>
    </vehicle>
    <vehicle id="83" depart="246.00">
        <route edges="-19 -3 17"/>
    </vehicle>
    <vehicle id="84" depart="246.00">
        <route edges="-29 -5 7"/>
    </vehicle>
    <vehicle id="85" depart="253.00">
        <route edges="-17 7"/>
    </vehicle>
    <vehicle id="86" depart="256.00">
        <route edges="-19 -3 7"/>
    </vehicle>
    <vehicle id="87" depart="261.00">
        <route edges="-29 -5 3 27"/>
    </vehicle>
    <vehicle id="88" depart="261.00">
        <route edges="-29 -5 7"/>
    </vehicle>
    <vehicle id="89" depart="263.00">
        <route edges="-29 -5 17"/>
    </vehicle>
    <vehicle id="90" depart="266.00">
        <route edges="-19 -3 17"/>
    </vehicle>
    <vehicle id="91" depart="269.00">
        <route edges="-29 -5 3 19"/>
    </vehicle>
    <vehicle id="92" depart="273.00">
        <route edges="-17 7"/>
    </vehicle>
    <vehicle id="93" depart="278.00">
        <route edges="-29 -5 17"/>
    </vehicle>
    <vehicle id="94" depart="281.00">
        <route edges="-29 -5 7"/>
    </vehicle>
    <vehicle id="95" depart="281.00">
        <route edges="-29 -5 3 19"/>
    </vehicle>
    <vehicle id="96" depart="290.00">
        <route edges="-29 -5 7"/>
    </vehicle>
    <vehicle id="97" depart="292.00">
        <route edges="-19 -3 7"/>
    </vehicle>
    <vehicle id="98" depart="294.00">
        <route edges="-29 -5 3 19"/>
    </vehicle>
    <vehicle id="99" depart="298.00">
        <route edges="-17 5 35"/>
    </vehicle>
    <vehicle id="100" depart="307.00">
        <route edges="-17 3 19"/>
    </vehicle>
    <vehicle id="101" depart="309.00">
        <route edges="-17 3 19"/>
    </vehicle>
    <vehicle id="102" depart="313.00">
        <route edges="-29 -5 17"/>
    </vehicle>
    <vehicle id="103" depart="321.00">
        <route edges="-17 7"/>
    </vehicle>
    <vehicle id="104" depart="322.00">
        <route edges="-17 7"/>
    </vehicle>
    <vehicle id="105" depart="322.00">
        <route edges="-17 5 29"/>
    </vehicle>
    <vehicle id="106" depart="328.00">
        <route edges="-17 7"/>
    </vehicle>
    <vehicle id="107" depart="328.00">
        <route edges="-35 -5 17"/>
    </vehicle>
    <vehicle id="108" depart="333.00">
        <route edges="-19 -3 7"/>
    </vehicle>
    <vehicle id="109" depart="334.00">
        <route edges="-17 7"/>
    </vehicle>
    <vehicle id="110" depart="336.00">
        <route edges="-17 3 19"/>
    </vehicle>
    <vehicle id="111" depart="338.00">
        <route edges="-29 -5 17"/>
    </vehicle>
    <vehicle id="112" depart="338.00">
        <route edges="-29 -5 7"/>
    </vehicle>
    <vehicle id="113" depart="338.00">
        <route edges="-29 -5 3 19"/>
    </vehicle>
    <vehicle id="114" depart="338.00">
        <route edges="-19 -3 7"/>
    </vehicle>
    <vehicle id="115" depart="340.00">
        <route edges="-17 3 19"/>
    </vehicle>
    <vehicle id="116" depart="345.00">
        <route edges="-17 3 19"/>
    </vehicle>
    <vehicle id="117" depart="356.00">
        <route edges="-29 -5 7"/>
    </vehicle>
    <vehicle id="118" depart="356.00">
        <route edges="-29 -5 17"/>
    </vehicle>
    <vehicle id="119" depart="359.00">
        <route edges="-7 5 29"/>
    </vehicle>
    <vehicle id="120" depart="362.00">
        <route edges="-17 3 19"/>
    </vehicle>
    <vehicle id="121" depart="363.00">
        <route edges="-35 -5 3 27"/>
    </vehicle>
    <vehicle id="122" depart="368.00">
        <route edges="-19 -3 7"/>
    </vehicle>
    <vehicle id="123" depart="369.00">
        <route edges="-17 5 35"/>
    </vehicle>
    <vehicle id="124" depart="372.00">
        <route edges="-17 3 27"/>
    </vehicle>
    <vehicle id="125" depart="372.00">
        <route edges="-17 3 19"/>
    </vehicle>
    <vehicle id="126" depart="385.00">
        <route edges="-17 3 27"/>
    </vehicle>
    <vehicle id="127" depart="389.00">
        <route edges="-17 7"/>
    </vehicle>
    <vehicle id="128" depart="392.00">
        <route edges="-19 -3 5 29"/>
    </vehicle>
    <vehicle id="129" depart="400.00">
        <route edges="-29 35"/>
    </vehicle>
    <vehicle id="130" depart="403.00">
        <route edges="-17 7"/>
    </vehicle>
    <vehicle id="131" depart="408.00">
        <route edges="-17 3 19"/>
    </vehicle>
    <vehicle id="132" depart="413.00">
        <route edges="-17 7"/>
    </vehicle>
    <vehicle id="133" depart="418.00">
        <route edges="-27 -3 5 35"/>
    </vehicle>
    <vehicle id="134" depart="420.00">
        <route edges="-17 3 19"/>
    </vehicle>
    <vehicle id="135" depart="426.00">
        <route edges="-17 7"/>
    </vehicle>
    <vehicle id="136" depart="428.00">
        <route edges="-19 27"/>
    </vehicle>
    <vehicle id="137" depart="438.00">
        <route edges="-17 3 27"/>
    </vehicle>
    <vehicle id="138" depart="439.00">
        <route edges="-19 -3 5 35"/>
    </vehicle>
    <vehicle id="139" depart="443.00">
        <route edges="-17 3 27"/>
    </vehicle>
    <vehicle id="140" depart="445.00">
        <route edges="-17 5 35"/>
    </vehicle>
    <vehicle id="141" depart="447.00">
        <route edges="-19 -3 7"/>
    </vehicle>
    <vehicle id="142" depart="457.00">
        <route edges="-17 3 27"/>
    </vehicle>
    <vehicle id="143" depart="458.00">
        <route edges="-17 5 35"/>
    </vehicle>
    <vehicle id="144" depart="458.00">
        <route edges="-19 -3 5 35"/>
    </vehicle>
    <vehicle id="145" depart="462.00">
        <route edges="-19 -3 7"/>
    </vehicle>
    <vehicle id="146" depart="466.00">
        <route edges="-17 5 29"/>
    </vehicle>
    <vehicle id="147" depart="466.00">
        <route edges="-17 5 29"/>
    </vehicle>
    <vehicle id="148" depart="469.00">
        <route edges="-17 5 29"/>
    </vehicle>
    <vehicle id="149" depart="469.00">
        <route edges="-17 3 19"/>
    </vehicle>
    <vehicle id="150" depart="473.00">
        <route edges="-19 27"/>
    </vehicle>
    <vehicle id="151" depart="488.00">
        <route edges="-17 5 35"/>
    </vehicle>
    <vehicle id="152" depart="493.00">
        <route edges="-17 5 29"/>
    </vehicle>
    <vehicle id="153" depart="494.00">
        <route edges="-17 3 19"/>
    </vehicle>
</routes>
